Cereblon_3HLL_20.pdb
  MOLSOFT 04032206213D

 31 33  0  0  1  0  0  0  0  0999 V2000
   78.8166   41.6867   43.8129 N   0  0  0  0  0  0  0  0  0  0  0  0
   78.9020   42.4358   42.6296 C   0  0  0  0  0  0  0  0  0  0  0  0
   78.0998   42.1647   41.5342 C   0  0  0  0  0  0  0  0  0  0  0  0
   77.1793   41.0535   41.3296 C   0  0  0  0  0  0  0  0  0  0  0  0
   76.9920   40.1774   42.1607 O   0  0  0  0  0  0  0  0  0  0  0  0
   76.6493   41.2120   40.0645 N   0  0  0  0  0  0  0  0  0  0  0  0
   77.1689   42.3322   39.4486 C   0  0  0  0  0  0  0  0  0  0  0  0
   76.9551   42.7538   38.3194 O   0  0  0  0  0  0  0  0  0  0  0  0
   78.0981   42.9308   40.4081 C   0  0  0  0  0  0  0  0  0  0  0  0
   78.9070   44.0420   40.2867 C   0  0  0  0  0  0  0  0  0  0  0  0
   79.7213   44.3457   41.3720 C   0  0  0  0  0  0  0  0  0  0  0  0
   79.7091   43.5647   42.5291 C   0  0  0  0  0  0  0  0  0  0  0  0
   75.6286   40.3748   39.4306 C   0  0  2  0  0  0  0  0  0  0  0  0
   74.2578   40.9545   39.7356 C   0  0  0  0  0  0  0  0  0  0  0  0
   74.0884   42.1349   39.9915 O   0  0  0  0  0  0  0  0  0  0  0  0
   73.1964   40.0899   39.6226 N   0  0  0  0  0  0  0  0  0  0  0  0
   73.2204   38.7519   39.3114 C   0  0  0  0  0  0  0  0  0  0  0  0
   72.1953   38.0994   39.2021 O   0  0  0  0  0  0  0  0  0  0  0  0
   74.5834   38.1516   39.0606 C   0  0  0  0  0  0  0  0  0  0  0  0
   75.6619   38.9009   39.8230 C   0  0  0  0  0  0  0  0  0  0  0  0
   79.5236   41.8006   44.5363 H   0  0  0  0  0  0  0  0  0  0  0  0
   78.2939   40.8093   43.7933 H   0  0  0  0  0  0  0  0  0  0  0  0
   78.9004   44.6467   39.3876 H   0  0  0  0  0  0  0  0  0  0  0  0
   80.3681   45.2148   41.3268 H   0  0  0  0  0  0  0  0  0  0  0  0
   80.3395   43.8493   43.3661 H   0  0  0  0  0  0  0  0  0  0  0  0
   75.7614   40.4724   38.3519 H   0  0  0  0  0  0  0  0  0  0  0  0
   72.2811   40.4926   39.7814 H   0  0  0  0  0  0  0  0  0  0  0  0
   74.5671   37.1046   39.3798 H   0  0  0  0  0  0  0  0  0  0  0  0
   74.7716   38.1741   37.9828 H   0  0  0  0  0  0  0  0  0  0  0  0
   76.6467   38.4702   39.6154 H   0  0  0  0  0  0  0  0  0  0  0  0
   75.4770   38.7766   40.8939 H   0  0  0  0  0  0  0  0  0  0  0  0
  1  2  1  0  0  0  0
  1 21  1  0  0  0  0
  1 22  1  0  0  0  0
  2  3  1  0  0  0  0
  2 12  2  0  0  0  0
  3  9  2  0  0  0  0
  3  4  1  0  0  0  0
  4  5  2  0  0  0  0
  4  6  1  0  0  0  0
  6  7  1  0  0  0  0
 13  6  1  0  0  0  0
  7  8  2  0  0  0  0
  7  9  1  0  0  0  0
  9 10  1  0  0  0  0
 10 23  1  0  0  0  0
 10 11  2  0  0  0  0
 11 12  1  0  0  0  0
 11 24  1  0  0  0  0
 12 25  1  0  0  0  0
 13 26  1  0  0  0  0
 13 14  1  0  0  0  0
 13 20  1  0  0  0  0
 14 15  2  0  0  0  0
 14 16  1  0  0  0  0
 16 27  1  0  0  0  0
 16 17  1  0  0  0  0
 17 18  2  0  0  0  0
 17 19  1  0  0  0  0
 19 28  1  0  0  0  0
 19 29  1  0  0  0  0
 19 20  1  0  0  0  0
 20 30  1  0  0  0  0
 20 31  1  0  0  0  0
M  ZZC   1 n1
M  ZZC   2 c1
M  ZZC   3 c2
M  ZZC   4 c3
M  ZZC   5 o1
M  ZZC   6 n2
M  ZZC   7 c4
M  ZZC   8 o2
M  ZZC   9 c5
M  ZZC  10 c6
M  ZZC  11 c7
M  ZZC  12 c8
M  ZZC  13 c9
M  ZZC  14 c10
M  ZZC  15 o3
M  ZZC  16 n3
M  ZZC  17 c11
M  ZZC  18 o4
M  ZZC  19 c12
M  ZZC  20 c13
M  ZZC  21 h11
M  ZZC  22 h12
M  ZZC  23 h61
M  ZZC  24 h71
M  ZZC  25 h81
M  ZZC  26 h91
M  ZZC  27 h31
M  ZZC  28 h121
M  ZZC  29 h122
M  ZZC  30 h131
M  ZZC  31 h132
M  ZZM   1 40
M  ZZI   1 224
M  ZZM   2 37
M  ZZI   2 124
M  ZZM   3 37
M  ZZI   3 124
M  ZZM   4 3
M  ZZI   4 121
M  ZZM   5 7
M  ZZI   5 81
M  ZZM   6 10
M  ZZI   6 192
M  ZZM   7 3
M  ZZI   7 121
M  ZZM   8 7
M  ZZI   8 81
M  ZZM   9 37
M  ZZI   9 124
M  ZZM  10 37
M  ZZI  10 125
M  ZZM  11 37
M  ZZI  11 125
M  ZZM  12 37
M  ZZI  12 125
M  ZZM  13 1
M  ZZI  13 113
M  ZZM  14 3
M  ZZI  14 121
M  ZZM  15 7
M  ZZI  15 81
M  ZZM  16 10
M  ZZI  16 191
M  ZZM  17 3
M  ZZI  17 121
M  ZZM  18 7
M  ZZI  18 81
M  ZZM  19 1
M  ZZI  19 112
M  ZZM  20 1
M  ZZI  20 112
M  ZZM  21 28
M  ZZI  21 11
M  ZZM  22 28
M  ZZI  22 11
M  ZZM  23 5
M  ZZI  23 1
M  ZZM  24 5
M  ZZI  24 1
M  ZZM  25 5
M  ZZI  25 1
M  ZZM  26 5
M  ZZI  26 1
M  ZZM  27 28
M  ZZI  27 11
M  ZZM  28 5
M  ZZI  28 1
M  ZZM  29 5
M  ZZI  29 1
M  ZZM  30 5
M  ZZI  30 1
M  ZZM  31 5
M  ZZI  31 1
M  END
> <IX>
1

> <NAME>
Cereblon_3HLL_20.pdb

> <Score>
-18.636702

> <Natom>
31

> <Nflex>
1

> <Hbond>
-3.680363

> <Hphob>
-3.565891

> <VwInt>
-24.190319

> <Dsolv>
15.192257

> <SolEl>
6.483107

> <Eintl>
1.635063

> <RecConf>
ND

> <projPath>
Cereblon_maps/

> <NAME_>
Cereblon_3HLL_20.pdb

$$$$
