Cereblon_5ML8_2.pdb
  MOLSOFT 04032206263D

 31 33  0  0  1  0  0  0  0  0999 V2000
   81.6191   53.0752   19.7078 N   0  0  0  0  0  0  0  0  0  0  0  0
   81.9314   54.4404   19.7382 C   0  0  0  0  0  0  0  0  0  0  0  0
   81.2299   55.3374   20.5256 C   0  0  0  0  0  0  0  0  0  0  0  0
   80.0285   55.1246   21.3280 C   0  0  0  0  0  0  0  0  0  0  0  0
   79.4211   54.0653   21.4011 O   0  0  0  0  0  0  0  0  0  0  0  0
   79.7600   56.3263   21.9467 N   0  0  0  0  0  0  0  0  0  0  0  0
   80.6731   57.2919   21.5771 C   0  0  0  0  0  0  0  0  0  0  0  0
   80.7466   58.4686   21.8997 O   0  0  0  0  0  0  0  0  0  0  0  0
   81.6108   56.6374   20.6684 C   0  0  0  0  0  0  0  0  0  0  0  0
   82.7268   57.1503   20.0342 C   0  0  0  0  0  0  0  0  0  0  0  0
   83.4593   56.2676   19.2506 C   0  0  0  0  0  0  0  0  0  0  0  0
   83.0771   54.9310   19.1248 C   0  0  0  0  0  0  0  0  0  0  0  0
   78.6171   56.5123   22.8402 C   0  0  2  0  0  0  0  0  0  0  0  0
   77.4671   57.1888   22.1187 C   0  0  0  0  0  0  0  0  0  0  0  0
   77.3315   57.1808   20.9042 O   0  0  0  0  0  0  0  0  0  0  0  0
   76.5173   57.7386   22.9468 N   0  0  0  0  0  0  0  0  0  0  0  0
   76.4990   57.7906   24.3200 C   0  0  0  0  0  0  0  0  0  0  0  0
   75.5318   58.2111   24.9341 O   0  0  0  0  0  0  0  0  0  0  0  0
   77.7210   57.2489   25.0238 C   0  0  0  0  0  0  0  0  0  0  0  0
   78.9346   57.2867   24.1155 C   0  0  0  0  0  0  0  0  0  0  0  0
   82.0407   52.5256   18.9642 H   0  0  0  0  0  0  0  0  0  0  0  0
   80.6510   52.8410   19.9270 H   0  0  0  0  0  0  0  0  0  0  0  0
   83.0262   58.1872   20.1530 H   0  0  0  0  0  0  0  0  0  0  0  0
   84.3525   56.6179   18.7405 H   0  0  0  0  0  0  0  0  0  0  0  0
   83.6871   54.2574   18.5314 H   0  0  0  0  0  0  0  0  0  0  0  0
   78.2511   55.5155   23.1013 H   0  0  0  0  0  0  0  0  0  0  0  0
   75.7240   58.1588   22.4811 H   0  0  0  0  0  0  0  0  0  0  0  0
   77.9079   57.8474   25.9212 H   0  0  0  0  0  0  0  0  0  0  0  0
   77.5110   56.2232   25.3365 H   0  0  0  0  0  0  0  0  0  0  0  0
   79.1867   58.3289   23.8923 H   0  0  0  0  0  0  0  0  0  0  0  0
   79.7974   56.8535   24.6294 H   0  0  0  0  0  0  0  0  0  0  0  0
  1  2  1  0  0  0  0
  1 21  1  0  0  0  0
  1 22  1  0  0  0  0
  2  3  1  0  0  0  0
  2 12  2  0  0  0  0
  3  9  2  0  0  0  0
  3  4  1  0  0  0  0
  4  5  2  0  0  0  0
  4  6  1  0  0  0  0
  6  7  1  0  0  0  0
 13  6  1  0  0  0  0
  7  8  2  0  0  0  0
  7  9  1  0  0  0  0
  9 10  1  0  0  0  0
 10 23  1  0  0  0  0
 10 11  2  0  0  0  0
 11 12  1  0  0  0  0
 11 24  1  0  0  0  0
 12 25  1  0  0  0  0
 13 26  1  0  0  0  0
 13 14  1  0  0  0  0
 13 20  1  0  0  0  0
 14 15  2  0  0  0  0
 14 16  1  0  0  0  0
 16 27  1  0  0  0  0
 16 17  1  0  0  0  0
 17 18  2  0  0  0  0
 17 19  1  0  0  0  0
 19 28  1  0  0  0  0
 19 29  1  0  0  0  0
 19 20  1  0  0  0  0
 20 30  1  0  0  0  0
 20 31  1  0  0  0  0
M  ZZC   1 n1
M  ZZC   2 c1
M  ZZC   3 c2
M  ZZC   4 c3
M  ZZC   5 o1
M  ZZC   6 n2
M  ZZC   7 c4
M  ZZC   8 o2
M  ZZC   9 c5
M  ZZC  10 c6
M  ZZC  11 c7
M  ZZC  12 c8
M  ZZC  13 c9
M  ZZC  14 c10
M  ZZC  15 o3
M  ZZC  16 n3
M  ZZC  17 c11
M  ZZC  18 o4
M  ZZC  19 c12
M  ZZC  20 c13
M  ZZC  21 h11
M  ZZC  22 h12
M  ZZC  23 h61
M  ZZC  24 h71
M  ZZC  25 h81
M  ZZC  26 h91
M  ZZC  27 h31
M  ZZC  28 h121
M  ZZC  29 h122
M  ZZC  30 h131
M  ZZC  31 h132
M  ZZM   1 40
M  ZZI   1 224
M  ZZM   2 37
M  ZZI   2 124
M  ZZM   3 37
M  ZZI   3 124
M  ZZM   4 3
M  ZZI   4 121
M  ZZM   5 7
M  ZZI   5 81
M  ZZM   6 10
M  ZZI   6 192
M  ZZM   7 3
M  ZZI   7 121
M  ZZM   8 7
M  ZZI   8 81
M  ZZM   9 37
M  ZZI   9 124
M  ZZM  10 37
M  ZZI  10 125
M  ZZM  11 37
M  ZZI  11 125
M  ZZM  12 37
M  ZZI  12 125
M  ZZM  13 1
M  ZZI  13 113
M  ZZM  14 3
M  ZZI  14 121
M  ZZM  15 7
M  ZZI  15 81
M  ZZM  16 10
M  ZZI  16 191
M  ZZM  17 3
M  ZZI  17 121
M  ZZM  18 7
M  ZZI  18 81
M  ZZM  19 1
M  ZZI  19 112
M  ZZM  20 1
M  ZZI  20 112
M  ZZM  21 28
M  ZZI  21 11
M  ZZM  22 28
M  ZZI  22 11
M  ZZM  23 5
M  ZZI  23 1
M  ZZM  24 5
M  ZZI  24 1
M  ZZM  25 5
M  ZZI  25 1
M  ZZM  26 5
M  ZZI  26 1
M  ZZM  27 28
M  ZZI  27 11
M  ZZM  28 5
M  ZZI  28 1
M  ZZM  29 5
M  ZZI  29 1
M  ZZM  30 5
M  ZZI  30 1
M  ZZM  31 5
M  ZZI  31 1
M  END
> <IX>
1

> <NAME>
Cereblon_5ML8_2.pdb

> <Score>
-23.241702

> <Natom>
31

> <Nflex>
1

> <Hbond>
-4.469852

> <Hphob>
-3.278864

> <VwInt>
-24.651393

> <Dsolv>
14.02681

> <SolEl>
4.959152

> <Eintl>
0.87018

> <RecConf>
ND

> <projPath>
Cereblon_maps/

> <NAME_>
Cereblon_5ML8_2.pdb

$$$$
