Cereblon_5P9J_8.pdb
  MOLSOFT 04032206263D

 29 31  0  0  1  0  0  0  0  0999 V2000
   79.8245   43.6072   42.5463 C   0  0  0  0  0  0  0  0  0  0  0  0
   79.0053   42.4917   42.6729 C   0  0  0  0  0  0  0  0  0  0  0  0
   78.1863   42.1969   41.5972 C   0  0  0  0  0  0  0  0  0  0  0  0
   77.2688   41.0788   41.4117 C   0  0  0  0  0  0  0  0  0  0  0  0
   77.0890   40.2184   42.2598 O   0  0  0  0  0  0  0  0  0  0  0  0
   76.7292   41.2200   40.1464 N   0  0  0  0  0  0  0  0  0  0  0  0
   77.2246   42.3476   39.5235 C   0  0  0  0  0  0  0  0  0  0  0  0
   76.9878   42.7666   38.3978 O   0  0  0  0  0  0  0  0  0  0  0  0
   78.1595   42.9594   40.4684 C   0  0  0  0  0  0  0  0  0  0  0  0
   78.9586   44.0754   40.3262 C   0  0  0  0  0  0  0  0  0  0  0  0
   79.8003   44.3855   41.3886 C   0  0  0  0  0  0  0  0  0  0  0  0
   75.7204   40.3654   39.5139 C   0  0  2  0  0  0  0  0  0  0  0  0
   74.3406   40.9352   39.8020 C   0  0  0  0  0  0  0  0  0  0  0  0
   74.1545   42.1214   40.0175 O   0  0  0  0  0  0  0  0  0  0  0  0
   73.2896   40.0542   39.7246 N   0  0  0  0  0  0  0  0  0  0  0  0
   73.3272   38.7081   39.4554 C   0  0  0  0  0  0  0  0  0  0  0  0
   72.3113   38.0347   39.4003 O   0  0  0  0  0  0  0  0  0  0  0  0
   74.6916   38.1253   39.1797 C   0  0  0  0  0  0  0  0  0  0  0  0
   75.7740   38.8953   39.9159 C   0  0  0  0  0  0  0  0  0  0  0  0
   80.4922   43.8763   43.3599 H   0  0  0  0  0  0  0  0  0  0  0  0
   79.0170   41.8763   43.5682 H   0  0  0  0  0  0  0  0  0  0  0  0
   78.9277   44.6771   39.4256 H   0  0  0  0  0  0  0  0  0  0  0  0
   80.4485   45.2514   41.3185 H   0  0  0  0  0  0  0  0  0  0  0  0
   75.8593   40.4533   38.4343 H   0  0  0  0  0  0  0  0  0  0  0  0
   72.3714   40.4486   39.8871 H   0  0  0  0  0  0  0  0  0  0  0  0
   74.6974   37.0797   39.5035 H   0  0  0  0  0  0  0  0  0  0  0  0
   74.8530   38.1462   38.0975 H   0  0  0  0  0  0  0  0  0  0  0  0
   76.7590   38.4724   39.6929 H   0  0  0  0  0  0  0  0  0  0  0  0
   75.6124   38.7759   40.9909 H   0  0  0  0  0  0  0  0  0  0  0  0
  1 20  1  0  0  0  0
  1  2  1  0  0  0  0
  1 11  2  0  0  0  0
  2 21  1  0  0  0  0
  2  3  2  0  0  0  0
  3  4  1  0  0  0  0
  3  9  1  0  0  0  0
  4  5  2  0  0  0  0
  4  6  1  0  0  0  0
  6  7  1  0  0  0  0
 12  6  1  0  0  0  0
  7  8  2  0  0  0  0
  7  9  1  0  0  0  0
  9 10  2  0  0  0  0
 10 22  1  0  0  0  0
 10 11  1  0  0  0  0
 11 23  1  0  0  0  0
 12 24  1  0  0  0  0
 12 13  1  0  0  0  0
 12 19  1  0  0  0  0
 13 14  2  0  0  0  0
 13 15  1  0  0  0  0
 15 25  1  0  0  0  0
 15 16  1  0  0  0  0
 16 17  2  0  0  0  0
 16 18  1  0  0  0  0
 18 26  1  0  0  0  0
 18 27  1  0  0  0  0
 18 19  1  0  0  0  0
 19 28  1  0  0  0  0
 19 29  1  0  0  0  0
M  ZZC   1 c1
M  ZZC   2 c2
M  ZZC   3 c3
M  ZZC   4 c4
M  ZZC   5 o1
M  ZZC   6 n1
M  ZZC   7 c5
M  ZZC   8 o2
M  ZZC   9 c6
M  ZZC  10 c7
M  ZZC  11 c8
M  ZZC  12 c9
M  ZZC  13 c10
M  ZZC  14 o3
M  ZZC  15 n2
M  ZZC  16 c11
M  ZZC  17 o4
M  ZZC  18 c12
M  ZZC  19 c13
M  ZZC  20 h11
M  ZZC  21 h21
M  ZZC  22 h71
M  ZZC  23 h81
M  ZZC  24 h91
M  ZZC  25 h01
M  ZZC  26 h121
M  ZZC  27 h122
M  ZZC  28 h131
M  ZZC  29 h132
M  ZZM   1 37
M  ZZI   1 125
M  ZZM   2 37
M  ZZI   2 125
M  ZZM   3 37
M  ZZI   3 124
M  ZZM   4 3
M  ZZI   4 121
M  ZZM   5 7
M  ZZI   5 81
M  ZZM   6 10
M  ZZI   6 192
M  ZZM   7 3
M  ZZI   7 121
M  ZZM   8 7
M  ZZI   8 81
M  ZZM   9 37
M  ZZI   9 124
M  ZZM  10 37
M  ZZI  10 125
M  ZZM  11 37
M  ZZI  11 125
M  ZZM  12 1
M  ZZI  12 113
M  ZZM  13 3
M  ZZI  13 121
M  ZZM  14 7
M  ZZI  14 81
M  ZZM  15 10
M  ZZI  15 191
M  ZZM  16 3
M  ZZI  16 121
M  ZZM  17 7
M  ZZI  17 81
M  ZZM  18 1
M  ZZI  18 112
M  ZZM  19 1
M  ZZI  19 112
M  ZZM  20 5
M  ZZI  20 1
M  ZZM  21 5
M  ZZI  21 1
M  ZZM  22 5
M  ZZI  22 1
M  ZZM  23 5
M  ZZI  23 1
M  ZZM  24 5
M  ZZI  24 1
M  ZZM  25 28
M  ZZI  25 11
M  ZZM  26 5
M  ZZI  26 1
M  ZZM  27 5
M  ZZI  27 1
M  ZZM  28 5
M  ZZI  28 1
M  ZZM  29 5
M  ZZI  29 1
M  END
> <IX>
1

> <NAME>
Cereblon_5P9J_8.pdb

> <Score>
-19.446072

> <Natom>
29

> <Nflex>
1

> <Hbond>
-3.358275

> <Hphob>
-3.533972

> <VwInt>
-22.732319

> <Dsolv>
12.023872

> <SolEl>
5.518515

> <Eintl>
1.483867

> <RecConf>
ND

> <projPath>
Cereblon_maps/

> <NAME_>
Cereblon_5P9J_8.pdb

$$$$
