Cereblon_6HMB_1.pdb
  MOLSOFT 04032206283D

 29 31  0  0  1  0  0  0  0  0999 V2000
   77.5500   40.8197   42.1407 C   0  0  0  0  0  0  0  0  0  0  0  0
   76.9458   40.9736   40.9060 C   0  0  0  0  0  0  0  0  0  0  0  0
   75.8980   40.1721   40.2770 C   0  0  0  0  0  0  0  0  0  0  0  0
   75.4740   39.1205   40.7320 O   0  0  0  0  0  0  0  0  0  0  0  0
   75.5166   40.8599   39.1434 N   0  0  0  0  0  0  0  0  0  0  0  0
   76.3669   41.9224   38.9101 C   0  0  0  0  0  0  0  0  0  0  0  0
   76.4337   42.6521   37.9310 O   0  0  0  0  0  0  0  0  0  0  0  0
   77.2218   42.0300   40.0894 C   0  0  0  0  0  0  0  0  0  0  0  0
   78.1370   43.0087   40.4361 C   0  0  0  0  0  0  0  0  0  0  0  0
   78.7619   42.8686   41.6711 C   0  0  0  0  0  0  0  0  0  0  0  0
   78.4632   41.7974   42.5162 C   0  0  0  0  0  0  0  0  0  0  0  0
   74.2517   40.6929   38.4146 C   0  0  2  0  0  0  0  0  0  0  0  0
   73.2253   41.4804   39.2080 C   0  0  0  0  0  0  0  0  0  0  0  0
   73.5489   42.3375   40.0141 O   0  0  0  0  0  0  0  0  0  0  0  0
   71.9077   41.2175   38.9226 N   0  0  0  0  0  0  0  0  0  0  0  0
   71.3986   40.2265   38.1183 C   0  0  0  0  0  0  0  0  0  0  0  0
   70.1967   40.1196   37.9248 O   0  0  0  0  0  0  0  0  0  0  0  0
   72.4193   39.3202   37.4604 C   0  0  0  0  0  0  0  0  0  0  0  0
   73.7239   39.2714   38.2466 C   0  0  0  0  0  0  0  0  0  0  0  0
   77.3076   39.9904   42.7983 H   0  0  0  0  0  0  0  0  0  0  0  0
   78.3466   43.8524   39.7860 H   0  0  0  0  0  0  0  0  0  0  0  0
   79.4791   43.6178   41.9922 H   0  0  0  0  0  0  0  0  0  0  0  0
   78.9511   41.7272   43.4841 H   0  0  0  0  0  0  0  0  0  0  0  0
   74.3434   41.1939   37.4436 H   0  0  0  0  0  0  0  0  0  0  0  0
   71.2343   41.8260   39.3713 H   0  0  0  0  0  0  0  0  0  0  0  0
   71.9937   38.3142   37.3886 H   0  0  0  0  0  0  0  0  0  0  0  0
   72.5938   39.6872   36.4431 H   0  0  0  0  0  0  0  0  0  0  0  0
   74.4525   38.6402   37.7301 H   0  0  0  0  0  0  0  0  0  0  0  0
   73.5323   38.8066   39.2196 H   0  0  0  0  0  0  0  0  0  0  0  0
  1 20  1  0  0  0  0
  1  2  1  0  0  0  0
  1 11  2  0  0  0  0
  2  3  1  0  0  0  0
  2  8  2  0  0  0  0
  3  4  2  0  0  0  0
  3  5  1  0  0  0  0
  5  6  1  0  0  0  0
 12  5  1  0  0  0  0
  6  7  2  0  0  0  0
  6  8  1  0  0  0  0
  8  9  1  0  0  0  0
  9 21  1  0  0  0  0
  9 10  2  0  0  0  0
 10 22  1  0  0  0  0
 10 11  1  0  0  0  0
 11 23  1  0  0  0  0
 12 24  1  0  0  0  0
 12 13  1  0  0  0  0
 12 19  1  0  0  0  0
 13 14  2  0  0  0  0
 13 15  1  0  0  0  0
 15 25  1  0  0  0  0
 15 16  1  0  0  0  0
 16 17  2  0  0  0  0
 16 18  1  0  0  0  0
 18 26  1  0  0  0  0
 18 27  1  0  0  0  0
 18 19  1  0  0  0  0
 19 28  1  0  0  0  0
 19 29  1  0  0  0  0
M  ZZC   1 c1
M  ZZC   2 c2
M  ZZC   3 c3
M  ZZC   4 o1
M  ZZC   5 n1
M  ZZC   6 c4
M  ZZC   7 o2
M  ZZC   8 c5
M  ZZC   9 c6
M  ZZC  10 c7
M  ZZC  11 c8
M  ZZC  12 c9
M  ZZC  13 c10
M  ZZC  14 o3
M  ZZC  15 n2
M  ZZC  16 c11
M  ZZC  17 o4
M  ZZC  18 c12
M  ZZC  19 c13
M  ZZC  20 h11
M  ZZC  21 h61
M  ZZC  22 h71
M  ZZC  23 h81
M  ZZC  24 h91
M  ZZC  25 h21
M  ZZC  26 h121
M  ZZC  27 h122
M  ZZC  28 h131
M  ZZC  29 h132
M  ZZM   1 37
M  ZZI   1 125
M  ZZM   2 37
M  ZZI   2 124
M  ZZM   3 3
M  ZZI   3 121
M  ZZM   4 7
M  ZZI   4 81
M  ZZM   5 10
M  ZZI   5 192
M  ZZM   6 3
M  ZZI   6 121
M  ZZM   7 7
M  ZZI   7 81
M  ZZM   8 37
M  ZZI   8 124
M  ZZM   9 37
M  ZZI   9 125
M  ZZM  10 37
M  ZZI  10 125
M  ZZM  11 37
M  ZZI  11 125
M  ZZM  12 1
M  ZZI  12 113
M  ZZM  13 3
M  ZZI  13 121
M  ZZM  14 7
M  ZZI  14 81
M  ZZM  15 10
M  ZZI  15 191
M  ZZM  16 3
M  ZZI  16 121
M  ZZM  17 7
M  ZZI  17 81
M  ZZM  18 1
M  ZZI  18 112
M  ZZM  19 1
M  ZZI  19 112
M  ZZM  20 5
M  ZZI  20 1
M  ZZM  21 5
M  ZZI  21 1
M  ZZM  22 5
M  ZZI  22 1
M  ZZM  23 5
M  ZZI  23 1
M  ZZM  24 5
M  ZZI  24 1
M  ZZM  25 28
M  ZZI  25 11
M  ZZM  26 5
M  ZZI  26 1
M  ZZM  27 5
M  ZZI  27 1
M  ZZM  28 5
M  ZZI  28 1
M  ZZM  29 5
M  ZZI  29 1
M  END
> <IX>
1

> <NAME>
Cereblon_6HMB_1.pdb

> <Score>
-16.785625

> <Natom>
29

> <Nflex>
1

> <Hbond>
-4.290936

> <Hphob>
-3.515392

> <VwInt>
-21.389238

> <Dsolv>
14.958191

> <SolEl>
4.218221

> <Eintl>
5.353877

> <RecConf>
ND

> <projPath>
Cereblon_maps/

> <NAME_>
Cereblon_6HMB_1.pdb

$$$$
