Cereblon_4IPF_11.pdb
  MOLSOFT 04032206233D

 31 33  0  0  1  0  0  0  0  0999 V2000
   77.6192   41.8843   41.9212 N   0  0  0  0  0  0  0  0  0  0  0  0
   77.2713   40.5783   41.5443 C   0  0  0  0  0  0  0  0  0  0  0  0
   76.3409   40.2938   40.5517 C   0  0  0  0  0  0  0  0  0  0  0  0
   75.4359   41.1720   39.8023 C   0  0  0  0  0  0  0  0  0  0  0  0
   75.2898   42.3647   40.0186 O   0  0  0  0  0  0  0  0  0  0  0  0
   74.7821   40.3773   38.8854 N   0  0  0  0  0  0  0  0  0  0  0  0
   75.0931   39.0516   39.0805 C   0  0  0  0  0  0  0  0  0  0  0  0
   74.6262   38.0580   38.5432 O   0  0  0  0  0  0  0  0  0  0  0  0
   76.1126   39.0180   40.1272 C   0  0  0  0  0  0  0  0  0  0  0  0
   76.7727   37.9267   40.6571 C   0  0  0  0  0  0  0  0  0  0  0  0
   77.6956   38.1831   41.6595 C   0  0  0  0  0  0  0  0  0  0  0  0
   77.9404   39.4863   42.0883 C   0  0  0  0  0  0  0  0  0  0  0  0
   73.7462   40.8296   37.9527 C   0  0  2  0  0  0  0  0  0  0  0  0
   74.1779   42.0667   37.1684 C   0  0  0  0  0  0  0  0  0  0  0  0
   75.3462   42.3398   36.9318 O   0  0  0  0  0  0  0  0  0  0  0  0
   73.1525   42.8351   36.6665 N   0  0  0  0  0  0  0  0  0  0  0  0
   71.7965   42.6529   36.7996 C   0  0  0  0  0  0  0  0  0  0  0  0
   70.9906   43.3965   36.2613 O   0  0  0  0  0  0  0  0  0  0  0  0
   71.3657   41.4523   37.6080 C   0  0  0  0  0  0  0  0  0  0  0  0
   72.4112   41.0640   38.6430 C   0  0  0  0  0  0  0  0  0  0  0  0
   78.1383   42.0314   42.7844 H   0  0  0  0  0  0  0  0  0  0  0  0
   77.1068   42.6754   41.5291 H   0  0  0  0  0  0  0  0  0  0  0  0
   76.5806   36.9165   40.3077 H   0  0  0  0  0  0  0  0  0  0  0  0
   78.2411   37.3602   42.1112 H   0  0  0  0  0  0  0  0  0  0  0  0
   78.6787   39.6486   42.8670 H   0  0  0  0  0  0  0  0  0  0  0  0
   73.6122   40.0338   37.2107 H   0  0  0  0  0  0  0  0  0  0  0  0
   73.4280   43.6434   36.1263 H   0  0  0  0  0  0  0  0  0  0  0  0
   70.4234   41.6929   38.1088 H   0  0  0  0  0  0  0  0  0  0  0  0
   71.1778   40.6256   36.9150 H   0  0  0  0  0  0  0  0  0  0  0  0
   72.5064   41.8455   39.4036 H   0  0  0  0  0  0  0  0  0  0  0  0
   72.0890   40.1605   39.1709 H   0  0  0  0  0  0  0  0  0  0  0  0
  1  2  1  0  0  0  0
  1 21  1  0  0  0  0
  1 22  1  0  0  0  0
  2  3  1  0  0  0  0
  2 12  2  0  0  0  0
  3  9  2  0  0  0  0
  3  4  1  0  0  0  0
  4  5  2  0  0  0  0
  4  6  1  0  0  0  0
  6  7  1  0  0  0  0
 13  6  1  0  0  0  0
  7  8  2  0  0  0  0
  7  9  1  0  0  0  0
  9 10  1  0  0  0  0
 10 23  1  0  0  0  0
 10 11  2  0  0  0  0
 11 12  1  0  0  0  0
 11 24  1  0  0  0  0
 12 25  1  0  0  0  0
 13 26  1  0  0  0  0
 13 14  1  0  0  0  0
 13 20  1  0  0  0  0
 14 15  2  0  0  0  0
 14 16  1  0  0  0  0
 16 27  1  0  0  0  0
 16 17  1  0  0  0  0
 17 18  2  0  0  0  0
 17 19  1  0  0  0  0
 19 28  1  0  0  0  0
 19 29  1  0  0  0  0
 19 20  1  0  0  0  0
 20 30  1  0  0  0  0
 20 31  1  0  0  0  0
M  ZZC   1 n1
M  ZZC   2 c1
M  ZZC   3 c2
M  ZZC   4 c3
M  ZZC   5 o1
M  ZZC   6 n2
M  ZZC   7 c4
M  ZZC   8 o2
M  ZZC   9 c5
M  ZZC  10 c6
M  ZZC  11 c7
M  ZZC  12 c8
M  ZZC  13 c9
M  ZZC  14 c10
M  ZZC  15 o3
M  ZZC  16 n3
M  ZZC  17 c11
M  ZZC  18 o4
M  ZZC  19 c12
M  ZZC  20 c13
M  ZZC  21 h11
M  ZZC  22 h12
M  ZZC  23 h61
M  ZZC  24 h71
M  ZZC  25 h81
M  ZZC  26 h91
M  ZZC  27 h31
M  ZZC  28 h121
M  ZZC  29 h122
M  ZZC  30 h131
M  ZZC  31 h132
M  ZZM   1 40
M  ZZI   1 224
M  ZZM   2 37
M  ZZI   2 124
M  ZZM   3 37
M  ZZI   3 124
M  ZZM   4 3
M  ZZI   4 121
M  ZZM   5 7
M  ZZI   5 81
M  ZZM   6 10
M  ZZI   6 192
M  ZZM   7 3
M  ZZI   7 121
M  ZZM   8 7
M  ZZI   8 81
M  ZZM   9 37
M  ZZI   9 124
M  ZZM  10 37
M  ZZI  10 125
M  ZZM  11 37
M  ZZI  11 125
M  ZZM  12 37
M  ZZI  12 125
M  ZZM  13 1
M  ZZI  13 113
M  ZZM  14 3
M  ZZI  14 121
M  ZZM  15 7
M  ZZI  15 81
M  ZZM  16 10
M  ZZI  16 191
M  ZZM  17 3
M  ZZI  17 121
M  ZZM  18 7
M  ZZI  18 81
M  ZZM  19 1
M  ZZI  19 112
M  ZZM  20 1
M  ZZI  20 112
M  ZZM  21 28
M  ZZI  21 11
M  ZZM  22 28
M  ZZI  22 11
M  ZZM  23 5
M  ZZI  23 1
M  ZZM  24 5
M  ZZI  24 1
M  ZZM  25 5
M  ZZI  25 1
M  ZZM  26 5
M  ZZI  26 1
M  ZZM  27 28
M  ZZI  27 11
M  ZZM  28 5
M  ZZI  28 1
M  ZZM  29 5
M  ZZI  29 1
M  ZZM  30 5
M  ZZI  30 1
M  ZZM  31 5
M  ZZI  31 1
M  END
> <IX>
1

> <NAME>
Cereblon_4IPF_11.pdb

> <Score>
-14.997234

> <Natom>
31

> <Nflex>
1

> <Hbond>
-4.153984

> <Hphob>
-3.548357

> <VwInt>
-23.201625

> <Dsolv>
17.436978

> <SolEl>
8.274436

> <Eintl>
3.254182

> <RecConf>
ND

> <projPath>
Cereblon_maps/

> <NAME_>
Cereblon_4IPF_11.pdb

$$$$
