Cereblon_5L2I_13.pdb
  MOLSOFT 04032206253D

 31 33  0  0  1  0  0  0  0  0999 V2000
   77.6208   41.8880   41.9228 N   0  0  0  0  0  0  0  0  0  0  0  0
   77.2688   40.5820   41.5487 C   0  0  0  0  0  0  0  0  0  0  0  0
   76.3407   40.2978   40.5537 C   0  0  0  0  0  0  0  0  0  0  0  0
   75.4394   41.1760   39.8000 C   0  0  0  0  0  0  0  0  0  0  0  0
   75.2937   42.3690   40.0150 O   0  0  0  0  0  0  0  0  0  0  0  0
   74.7877   40.3815   38.8820 N   0  0  0  0  0  0  0  0  0  0  0  0
   75.0928   39.0548   39.0842 C   0  0  0  0  0  0  0  0  0  0  0  0
   74.6200   38.0616   38.5513 O   0  0  0  0  0  0  0  0  0  0  0  0
   76.1121   39.0218   40.1301 C   0  0  0  0  0  0  0  0  0  0  0  0
   76.7706   37.9299   40.6611 C   0  0  0  0  0  0  0  0  0  0  0  0
   77.6933   38.1863   41.6636 C   0  0  0  0  0  0  0  0  0  0  0  0
   77.9386   39.4898   42.0921 C   0  0  0  0  0  0  0  0  0  0  0  0
   73.7503   40.8320   37.9503 C   0  0  2  0  0  0  0  0  0  0  0  0
   74.1803   42.0689   37.1650 C   0  0  0  0  0  0  0  0  0  0  0  0
   75.3482   42.3411   36.9255 O   0  0  0  0  0  0  0  0  0  0  0  0
   73.1545   42.8369   36.6631 N   0  0  0  0  0  0  0  0  0  0  0  0
   71.7985   42.6559   36.7989 C   0  0  0  0  0  0  0  0  0  0  0  0
   70.9924   43.4008   36.2625 O   0  0  0  0  0  0  0  0  0  0  0  0
   71.3683   41.4554   37.6079 C   0  0  0  0  0  0  0  0  0  0  0  0
   72.4147   41.0653   38.6411 C   0  0  0  0  0  0  0  0  0  0  0  0
   78.1464   42.0359   42.7820 H   0  0  0  0  0  0  0  0  0  0  0  0
   77.1097   42.6800   41.5309 H   0  0  0  0  0  0  0  0  0  0  0  0
   76.5767   36.9195   40.3133 H   0  0  0  0  0  0  0  0  0  0  0  0
   78.2406   37.3642   42.1146 H   0  0  0  0  0  0  0  0  0  0  0  0
   78.6806   39.6525   42.8672 H   0  0  0  0  0  0  0  0  0  0  0  0
   73.6161   40.0346   37.2101 H   0  0  0  0  0  0  0  0  0  0  0  0
   73.4302   43.6461   36.1240 H   0  0  0  0  0  0  0  0  0  0  0  0
   70.4269   41.6968   38.1101 H   0  0  0  0  0  0  0  0  0  0  0  0
   71.1787   40.6291   36.9150 H   0  0  0  0  0  0  0  0  0  0  0  0
   72.5102   41.8463   39.4024 H   0  0  0  0  0  0  0  0  0  0  0  0
   72.0936   40.1612   39.1687 H   0  0  0  0  0  0  0  0  0  0  0  0
  1  2  1  0  0  0  0
  1 21  1  0  0  0  0
  1 22  1  0  0  0  0
  2  3  1  0  0  0  0
  2 12  2  0  0  0  0
  3  9  2  0  0  0  0
  3  4  1  0  0  0  0
  4  5  2  0  0  0  0
  4  6  1  0  0  0  0
  6  7  1  0  0  0  0
 13  6  1  0  0  0  0
  7  8  2  0  0  0  0
  7  9  1  0  0  0  0
  9 10  1  0  0  0  0
 10 23  1  0  0  0  0
 10 11  2  0  0  0  0
 11 12  1  0  0  0  0
 11 24  1  0  0  0  0
 12 25  1  0  0  0  0
 13 26  1  0  0  0  0
 13 14  1  0  0  0  0
 13 20  1  0  0  0  0
 14 15  2  0  0  0  0
 14 16  1  0  0  0  0
 16 27  1  0  0  0  0
 16 17  1  0  0  0  0
 17 18  2  0  0  0  0
 17 19  1  0  0  0  0
 19 28  1  0  0  0  0
 19 29  1  0  0  0  0
 19 20  1  0  0  0  0
 20 30  1  0  0  0  0
 20 31  1  0  0  0  0
M  ZZC   1 n1
M  ZZC   2 c1
M  ZZC   3 c2
M  ZZC   4 c3
M  ZZC   5 o1
M  ZZC   6 n2
M  ZZC   7 c4
M  ZZC   8 o2
M  ZZC   9 c5
M  ZZC  10 c6
M  ZZC  11 c7
M  ZZC  12 c8
M  ZZC  13 c9
M  ZZC  14 c10
M  ZZC  15 o3
M  ZZC  16 n3
M  ZZC  17 c11
M  ZZC  18 o4
M  ZZC  19 c12
M  ZZC  20 c13
M  ZZC  21 h11
M  ZZC  22 h12
M  ZZC  23 h61
M  ZZC  24 h71
M  ZZC  25 h81
M  ZZC  26 h91
M  ZZC  27 h31
M  ZZC  28 h121
M  ZZC  29 h122
M  ZZC  30 h131
M  ZZC  31 h132
M  ZZM   1 40
M  ZZI   1 224
M  ZZM   2 37
M  ZZI   2 124
M  ZZM   3 37
M  ZZI   3 124
M  ZZM   4 3
M  ZZI   4 121
M  ZZM   5 7
M  ZZI   5 81
M  ZZM   6 10
M  ZZI   6 192
M  ZZM   7 3
M  ZZI   7 121
M  ZZM   8 7
M  ZZI   8 81
M  ZZM   9 37
M  ZZI   9 124
M  ZZM  10 37
M  ZZI  10 125
M  ZZM  11 37
M  ZZI  11 125
M  ZZM  12 37
M  ZZI  12 125
M  ZZM  13 1
M  ZZI  13 113
M  ZZM  14 3
M  ZZI  14 121
M  ZZM  15 7
M  ZZI  15 81
M  ZZM  16 10
M  ZZI  16 191
M  ZZM  17 3
M  ZZI  17 121
M  ZZM  18 7
M  ZZI  18 81
M  ZZM  19 1
M  ZZI  19 112
M  ZZM  20 1
M  ZZI  20 112
M  ZZM  21 28
M  ZZI  21 11
M  ZZM  22 28
M  ZZI  22 11
M  ZZM  23 5
M  ZZI  23 1
M  ZZM  24 5
M  ZZI  24 1
M  ZZM  25 5
M  ZZI  25 1
M  ZZM  26 5
M  ZZI  26 1
M  ZZM  27 28
M  ZZI  27 11
M  ZZM  28 5
M  ZZI  28 1
M  ZZM  29 5
M  ZZI  29 1
M  ZZM  30 5
M  ZZI  30 1
M  ZZM  31 5
M  ZZI  31 1
M  END
> <IX>
1

> <NAME>
Cereblon_5L2I_13.pdb

> <Score>
-15.175125

> <Natom>
31

> <Nflex>
1

> <Hbond>
-4.12778

> <Hphob>
-3.578769

> <VwInt>
-23.443333

> <Dsolv>
17.48126

> <SolEl>
8.264983

> <Eintl>
3.239054

> <RecConf>
ND

> <projPath>
Cereblon_maps/

> <NAME_>
Cereblon_5L2I_13.pdb

$$$$
