Cereblon_6IQ5_3.pdb
  MOLSOFT 04032206283D

 29 31  0  0  1  0  0  0  0  0999 V2000
   79.0038   42.4895   42.6735 C   0  0  0  0  0  0  0  0  0  0  0  0
   78.1859   42.1942   41.5971 C   0  0  0  0  0  0  0  0  0  0  0  0
   77.2685   41.0759   41.4111 C   0  0  0  0  0  0  0  0  0  0  0  0
   77.0877   40.2147   42.2582 O   0  0  0  0  0  0  0  0  0  0  0  0
   76.7282   41.2189   40.1460 N   0  0  0  0  0  0  0  0  0  0  0  0
   77.2243   42.3464   39.5236 C   0  0  0  0  0  0  0  0  0  0  0  0
   76.9891   42.7644   38.3971 O   0  0  0  0  0  0  0  0  0  0  0  0
   78.1585   42.9581   40.4691 C   0  0  0  0  0  0  0  0  0  0  0  0
   78.9567   44.0751   40.3284 C   0  0  0  0  0  0  0  0  0  0  0  0
   79.7989   44.3845   41.3904 C   0  0  0  0  0  0  0  0  0  0  0  0
   79.8228   43.6053   42.5476 C   0  0  0  0  0  0  0  0  0  0  0  0
   75.7203   40.3647   39.5123 C   0  0  2  0  0  0  0  0  0  0  0  0
   74.3411   40.9346   39.8014 C   0  0  0  0  0  0  0  0  0  0  0  0
   74.1551   42.1208   40.0167 O   0  0  0  0  0  0  0  0  0  0  0  0
   73.2898   40.0539   39.7249 N   0  0  0  0  0  0  0  0  0  0  0  0
   73.3261   38.7079   39.4548 C   0  0  0  0  0  0  0  0  0  0  0  0
   72.3100   38.0350   39.3986 O   0  0  0  0  0  0  0  0  0  0  0  0
   74.6902   38.1254   39.1785 C   0  0  0  0  0  0  0  0  0  0  0  0
   75.7734   38.8942   39.9146 C   0  0  0  0  0  0  0  0  0  0  0  0
   79.0140   41.8736   43.5686 H   0  0  0  0  0  0  0  0  0  0  0  0
   78.9262   44.6772   39.4279 H   0  0  0  0  0  0  0  0  0  0  0  0
   80.4465   45.2506   41.3205 H   0  0  0  0  0  0  0  0  0  0  0  0
   80.4903   43.8740   43.3615 H   0  0  0  0  0  0  0  0  0  0  0  0
   75.8607   40.4518   38.4327 H   0  0  0  0  0  0  0  0  0  0  0  0
   72.3716   40.4487   39.8864 H   0  0  0  0  0  0  0  0  0  0  0  0
   74.6977   37.0802   39.5035 H   0  0  0  0  0  0  0  0  0  0  0  0
   74.8513   38.1468   38.0963 H   0  0  0  0  0  0  0  0  0  0  0  0
   75.6099   38.7754   40.9893 H   0  0  0  0  0  0  0  0  0  0  0  0
   76.7588   38.4719   39.6923 H   0  0  0  0  0  0  0  0  0  0  0  0
  1 20  1  0  0  0  0
  1  2  1  0  0  0  0
  1 11  2  0  0  0  0
  2  3  1  0  0  0  0
  2  8  2  0  0  0  0
  3  4  2  0  0  0  0
  3  5  1  0  0  0  0
  5  6  1  0  0  0  0
 12  5  1  0  0  0  0
  6  7  2  0  0  0  0
  6  8  1  0  0  0  0
  8  9  1  0  0  0  0
  9 21  1  0  0  0  0
  9 10  2  0  0  0  0
 10 22  1  0  0  0  0
 10 11  1  0  0  0  0
 11 23  1  0  0  0  0
 12 24  1  0  0  0  0
 12 13  1  0  0  0  0
 12 19  1  0  0  0  0
 13 14  2  0  0  0  0
 13 15  1  0  0  0  0
 15 25  1  0  0  0  0
 15 16  1  0  0  0  0
 16 17  2  0  0  0  0
 16 18  1  0  0  0  0
 18 26  1  0  0  0  0
 18 27  1  0  0  0  0
 18 19  1  0  0  0  0
 19 28  1  0  0  0  0
 19 29  1  0  0  0  0
M  ZZC   1 c1
M  ZZC   2 c2
M  ZZC   3 c3
M  ZZC   4 o1
M  ZZC   5 n1
M  ZZC   6 c4
M  ZZC   7 o2
M  ZZC   8 c5
M  ZZC   9 c6
M  ZZC  10 c7
M  ZZC  11 c8
M  ZZC  12 c9
M  ZZC  13 c10
M  ZZC  14 o3
M  ZZC  15 n2
M  ZZC  16 c11
M  ZZC  17 o4
M  ZZC  18 c12
M  ZZC  19 c13
M  ZZC  20 h11
M  ZZC  21 h61
M  ZZC  22 h71
M  ZZC  23 h81
M  ZZC  24 h91
M  ZZC  25 h21
M  ZZC  26 h121
M  ZZC  27 h122
M  ZZC  28 h131
M  ZZC  29 h132
M  ZZM   1 37
M  ZZI   1 125
M  ZZM   2 37
M  ZZI   2 124
M  ZZM   3 3
M  ZZI   3 121
M  ZZM   4 7
M  ZZI   4 81
M  ZZM   5 10
M  ZZI   5 192
M  ZZM   6 3
M  ZZI   6 121
M  ZZM   7 7
M  ZZI   7 81
M  ZZM   8 37
M  ZZI   8 124
M  ZZM   9 37
M  ZZI   9 125
M  ZZM  10 37
M  ZZI  10 125
M  ZZM  11 37
M  ZZI  11 125
M  ZZM  12 1
M  ZZI  12 113
M  ZZM  13 3
M  ZZI  13 121
M  ZZM  14 7
M  ZZI  14 81
M  ZZM  15 10
M  ZZI  15 191
M  ZZM  16 3
M  ZZI  16 121
M  ZZM  17 7
M  ZZI  17 81
M  ZZM  18 1
M  ZZI  18 112
M  ZZM  19 1
M  ZZI  19 112
M  ZZM  20 5
M  ZZI  20 1
M  ZZM  21 5
M  ZZI  21 1
M  ZZM  22 5
M  ZZI  22 1
M  ZZM  23 5
M  ZZI  23 1
M  ZZM  24 5
M  ZZI  24 1
M  ZZM  25 28
M  ZZI  25 11
M  ZZM  26 5
M  ZZI  26 1
M  ZZM  27 5
M  ZZI  27 1
M  ZZM  28 5
M  ZZI  28 1
M  ZZM  29 5
M  ZZI  29 1
M  END
> <IX>
1

> <NAME>
Cereblon_6IQ5_3.pdb

> <Score>
-19.486891

> <Natom>
29

> <Nflex>
1

> <Hbond>
-3.372472

> <Hphob>
-3.578186

> <VwInt>
-22.686224

> <Dsolv>
11.906686

> <SolEl>
5.610577

> <Eintl>
1.49346

> <RecConf>
ND

> <projPath>
Cereblon_maps/

> <NAME_>
Cereblon_6IQ5_3.pdb

$$$$
