Cereblon_2GQG_36.pdb
  MOLSOFT 04032206203D

 31 33  0  0  1  0  0  0  0  0999 V2000
   81.6202   53.0725   19.7095 N   0  0  0  0  0  0  0  0  0  0  0  0
   81.9313   54.4381   19.7383 C   0  0  0  0  0  0  0  0  0  0  0  0
   81.2289   55.3353   20.5247 C   0  0  0  0  0  0  0  0  0  0  0  0
   80.0281   55.1222   21.3280 C   0  0  0  0  0  0  0  0  0  0  0  0
   79.4222   54.0622   21.4029 O   0  0  0  0  0  0  0  0  0  0  0  0
   79.7576   56.3248   21.9438 N   0  0  0  0  0  0  0  0  0  0  0  0
   80.6693   57.2910   21.5726 C   0  0  0  0  0  0  0  0  0  0  0  0
   80.7421   58.4680   21.8943 O   0  0  0  0  0  0  0  0  0  0  0  0
   81.6078   56.6362   20.6648 C   0  0  0  0  0  0  0  0  0  0  0  0
   82.7239   57.1492   20.0309 C   0  0  0  0  0  0  0  0  0  0  0  0
   83.4577   56.2660   19.2491 C   0  0  0  0  0  0  0  0  0  0  0  0
   83.0770   54.9289   19.1250 C   0  0  0  0  0  0  0  0  0  0  0  0
   78.6151   56.5107   22.8379 C   0  0  2  0  0  0  0  0  0  0  0  0
   77.4648   57.1877   22.1173 C   0  0  0  0  0  0  0  0  0  0  0  0
   77.3283   57.1797   20.9028 O   0  0  0  0  0  0  0  0  0  0  0  0
   76.5159   57.7382   22.9460 N   0  0  0  0  0  0  0  0  0  0  0  0
   76.4986   57.7902   24.3192 C   0  0  0  0  0  0  0  0  0  0  0  0
   75.5321   58.2116   24.9339 O   0  0  0  0  0  0  0  0  0  0  0  0
   77.7206   57.2477   25.0222 C   0  0  0  0  0  0  0  0  0  0  0  0
   78.9337   57.2848   24.1132 C   0  0  0  0  0  0  0  0  0  0  0  0
   82.0380   52.5251   18.9622 H   0  0  0  0  0  0  0  0  0  0  0  0
   80.6520   52.8391   19.9291 H   0  0  0  0  0  0  0  0  0  0  0  0
   83.0218   58.1866   20.1483 H   0  0  0  0  0  0  0  0  0  0  0  0
   84.3513   56.6164   18.7396 H   0  0  0  0  0  0  0  0  0  0  0  0
   83.6882   54.2550   18.5332 H   0  0  0  0  0  0  0  0  0  0  0  0
   78.2491   55.5140   23.0990 H   0  0  0  0  0  0  0  0  0  0  0  0
   75.7226   58.1588   22.4809 H   0  0  0  0  0  0  0  0  0  0  0  0
   77.9084   57.8461   25.9194 H   0  0  0  0  0  0  0  0  0  0  0  0
   77.5101   56.2221   25.3350 H   0  0  0  0  0  0  0  0  0  0  0  0
   79.7966   56.8509   24.6264 H   0  0  0  0  0  0  0  0  0  0  0  0
   79.1863   58.3269   23.8900 H   0  0  0  0  0  0  0  0  0  0  0  0
  1  2  1  0  0  0  0
  1 21  1  0  0  0  0
  1 22  1  0  0  0  0
  2  3  1  0  0  0  0
  2 12  2  0  0  0  0
  3  9  2  0  0  0  0
  3  4  1  0  0  0  0
  4  5  2  0  0  0  0
  4  6  1  0  0  0  0
  6  7  1  0  0  0  0
 13  6  1  0  0  0  0
  7  8  2  0  0  0  0
  7  9  1  0  0  0  0
  9 10  1  0  0  0  0
 10 23  1  0  0  0  0
 10 11  2  0  0  0  0
 11 12  1  0  0  0  0
 11 24  1  0  0  0  0
 12 25  1  0  0  0  0
 13 26  1  0  0  0  0
 13 14  1  0  0  0  0
 13 20  1  0  0  0  0
 14 15  2  0  0  0  0
 14 16  1  0  0  0  0
 16 27  1  0  0  0  0
 16 17  1  0  0  0  0
 17 18  2  0  0  0  0
 17 19  1  0  0  0  0
 19 28  1  0  0  0  0
 19 29  1  0  0  0  0
 19 20  1  0  0  0  0
 20 30  1  0  0  0  0
 20 31  1  0  0  0  0
M  ZZC   1 n1
M  ZZC   2 c1
M  ZZC   3 c2
M  ZZC   4 c3
M  ZZC   5 o1
M  ZZC   6 n2
M  ZZC   7 c4
M  ZZC   8 o2
M  ZZC   9 c5
M  ZZC  10 c6
M  ZZC  11 c7
M  ZZC  12 c8
M  ZZC  13 c9
M  ZZC  14 c10
M  ZZC  15 o3
M  ZZC  16 n3
M  ZZC  17 c11
M  ZZC  18 o4
M  ZZC  19 c12
M  ZZC  20 c13
M  ZZC  21 h11
M  ZZC  22 h12
M  ZZC  23 h61
M  ZZC  24 h71
M  ZZC  25 h81
M  ZZC  26 h91
M  ZZC  27 h31
M  ZZC  28 h121
M  ZZC  29 h122
M  ZZC  30 h131
M  ZZC  31 h132
M  ZZM   1 40
M  ZZI   1 224
M  ZZM   2 37
M  ZZI   2 124
M  ZZM   3 37
M  ZZI   3 124
M  ZZM   4 3
M  ZZI   4 121
M  ZZM   5 7
M  ZZI   5 81
M  ZZM   6 10
M  ZZI   6 192
M  ZZM   7 3
M  ZZI   7 121
M  ZZM   8 7
M  ZZI   8 81
M  ZZM   9 37
M  ZZI   9 124
M  ZZM  10 37
M  ZZI  10 125
M  ZZM  11 37
M  ZZI  11 125
M  ZZM  12 37
M  ZZI  12 125
M  ZZM  13 1
M  ZZI  13 113
M  ZZM  14 3
M  ZZI  14 121
M  ZZM  15 7
M  ZZI  15 81
M  ZZM  16 10
M  ZZI  16 191
M  ZZM  17 3
M  ZZI  17 121
M  ZZM  18 7
M  ZZI  18 81
M  ZZM  19 1
M  ZZI  19 112
M  ZZM  20 1
M  ZZI  20 112
M  ZZM  21 28
M  ZZI  21 11
M  ZZM  22 28
M  ZZI  22 11
M  ZZM  23 5
M  ZZI  23 1
M  ZZM  24 5
M  ZZI  24 1
M  ZZM  25 5
M  ZZI  25 1
M  ZZM  26 5
M  ZZI  26 1
M  ZZM  27 28
M  ZZI  27 11
M  ZZM  28 5
M  ZZI  28 1
M  ZZM  29 5
M  ZZI  29 1
M  ZZM  30 5
M  ZZI  30 1
M  ZZM  31 5
M  ZZI  31 1
M  END
> <IX>
1

> <NAME>
Cereblon_2GQG_36.pdb

> <Score>
-22.969027

> <Natom>
31

> <Nflex>
1

> <Hbond>
-4.430163

> <Hphob>
-3.28872

> <VwInt>
-24.687053

> <Dsolv>
13.940372

> <SolEl>
5.457077

> <Eintl>
0.788051

> <RecConf>
ND

> <projPath>
Cereblon_maps/

> <NAME_>
Cereblon_2GQG_36.pdb

$$$$
