Cereblon_3PE1_1.pdb
  MOLSOFT 04032206223D

 29 31  0  0  1  0  0  0  0  0999 V2000
   79.0022   42.4869   42.6732 C   0  0  0  0  0  0  0  0  0  0  0  0
   78.1845   42.1934   41.5970 C   0  0  0  0  0  0  0  0  0  0  0  0
   77.2668   41.0755   41.4101 C   0  0  0  0  0  0  0  0  0  0  0  0
   77.0876   40.2135   42.2569 O   0  0  0  0  0  0  0  0  0  0  0  0
   76.7254   41.2202   40.1459 N   0  0  0  0  0  0  0  0  0  0  0  0
   77.2230   42.3470   39.5237 C   0  0  0  0  0  0  0  0  0  0  0  0
   76.9874   42.7660   38.3977 O   0  0  0  0  0  0  0  0  0  0  0  0
   78.1579   42.9576   40.4694 C   0  0  0  0  0  0  0  0  0  0  0  0
   78.9572   44.0742   40.3285 C   0  0  0  0  0  0  0  0  0  0  0  0
   79.7977   44.3826   41.3919 C   0  0  0  0  0  0  0  0  0  0  0  0
   79.8212   43.6022   42.5485 C   0  0  0  0  0  0  0  0  0  0  0  0
   75.7165   40.3657   39.5129 C   0  0  2  0  0  0  0  0  0  0  0  0
   74.3379   40.9339   39.8019 C   0  0  0  0  0  0  0  0  0  0  0  0
   74.1499   42.1201   40.0157 O   0  0  0  0  0  0  0  0  0  0  0  0
   73.2872   40.0524   39.7279 N   0  0  0  0  0  0  0  0  0  0  0  0
   73.3250   38.7070   39.4528 C   0  0  0  0  0  0  0  0  0  0  0  0
   72.3092   38.0338   39.3927 O   0  0  0  0  0  0  0  0  0  0  0  0
   74.6887   38.1268   39.1743 C   0  0  0  0  0  0  0  0  0  0  0  0
   75.7707   38.8950   39.9133 C   0  0  0  0  0  0  0  0  0  0  0  0
   79.0128   41.8707   43.5686 H   0  0  0  0  0  0  0  0  0  0  0  0
   78.9265   44.6761   39.4278 H   0  0  0  0  0  0  0  0  0  0  0  0
   80.4467   45.2477   41.3242 H   0  0  0  0  0  0  0  0  0  0  0  0
   80.4891   43.8693   43.3630 H   0  0  0  0  0  0  0  0  0  0  0  0
   75.8554   40.4534   38.4334 H   0  0  0  0  0  0  0  0  0  0  0  0
   72.3693   40.4465   39.8921 H   0  0  0  0  0  0  0  0  0  0  0  0
   74.6955   37.0807   39.4959 H   0  0  0  0  0  0  0  0  0  0  0  0
   74.8503   38.1515   38.0921 H   0  0  0  0  0  0  0  0  0  0  0  0
   76.7559   38.4735   39.6903 H   0  0  0  0  0  0  0  0  0  0  0  0
   75.6068   38.7742   40.9883 H   0  0  0  0  0  0  0  0  0  0  0  0
  1 20  1  0  0  0  0
  1  2  1  0  0  0  0
  1 11  2  0  0  0  0
  2  3  1  0  0  0  0
  2  8  2  0  0  0  0
  3  4  2  0  0  0  0
  3  5  1  0  0  0  0
  5  6  1  0  0  0  0
 12  5  1  0  0  0  0
  6  7  2  0  0  0  0
  6  8  1  0  0  0  0
  8  9  1  0  0  0  0
  9 21  1  0  0  0  0
  9 10  2  0  0  0  0
 10 22  1  0  0  0  0
 10 11  1  0  0  0  0
 11 23  1  0  0  0  0
 12 24  1  0  0  0  0
 12 13  1  0  0  0  0
 12 19  1  0  0  0  0
 13 14  2  0  0  0  0
 13 15  1  0  0  0  0
 15 25  1  0  0  0  0
 15 16  1  0  0  0  0
 16 17  2  0  0  0  0
 16 18  1  0  0  0  0
 18 26  1  0  0  0  0
 18 27  1  0  0  0  0
 18 19  1  0  0  0  0
 19 28  1  0  0  0  0
 19 29  1  0  0  0  0
M  ZZC   1 c1
M  ZZC   2 c2
M  ZZC   3 c3
M  ZZC   4 o1
M  ZZC   5 n1
M  ZZC   6 c4
M  ZZC   7 o2
M  ZZC   8 c5
M  ZZC   9 c6
M  ZZC  10 c7
M  ZZC  11 c8
M  ZZC  12 c9
M  ZZC  13 c10
M  ZZC  14 o3
M  ZZC  15 n2
M  ZZC  16 c11
M  ZZC  17 o4
M  ZZC  18 c12
M  ZZC  19 c13
M  ZZC  20 h11
M  ZZC  21 h61
M  ZZC  22 h71
M  ZZC  23 h81
M  ZZC  24 h91
M  ZZC  25 h21
M  ZZC  26 h121
M  ZZC  27 h122
M  ZZC  28 h131
M  ZZC  29 h132
M  ZZM   1 37
M  ZZI   1 125
M  ZZM   2 37
M  ZZI   2 124
M  ZZM   3 3
M  ZZI   3 121
M  ZZM   4 7
M  ZZI   4 81
M  ZZM   5 10
M  ZZI   5 192
M  ZZM   6 3
M  ZZI   6 121
M  ZZM   7 7
M  ZZI   7 81
M  ZZM   8 37
M  ZZI   8 124
M  ZZM   9 37
M  ZZI   9 125
M  ZZM  10 37
M  ZZI  10 125
M  ZZM  11 37
M  ZZI  11 125
M  ZZM  12 1
M  ZZI  12 113
M  ZZM  13 3
M  ZZI  13 121
M  ZZM  14 7
M  ZZI  14 81
M  ZZM  15 10
M  ZZI  15 191
M  ZZM  16 3
M  ZZI  16 121
M  ZZM  17 7
M  ZZI  17 81
M  ZZM  18 1
M  ZZI  18 112
M  ZZM  19 1
M  ZZI  19 112
M  ZZM  20 5
M  ZZI  20 1
M  ZZM  21 5
M  ZZI  21 1
M  ZZM  22 5
M  ZZI  22 1
M  ZZM  23 5
M  ZZI  23 1
M  ZZM  24 5
M  ZZI  24 1
M  ZZM  25 28
M  ZZI  25 11
M  ZZM  26 5
M  ZZI  26 1
M  ZZM  27 5
M  ZZI  27 1
M  ZZM  28 5
M  ZZI  28 1
M  ZZM  29 5
M  ZZI  29 1
M  END
> <IX>
1

> <NAME>
Cereblon_3PE1_1.pdb

> <Score>
-19.266557

> <Natom>
29

> <Nflex>
1

> <Hbond>
-3.285094

> <Hphob>
-3.517269

> <VwInt>
-22.831767

> <Dsolv>
11.996311

> <SolEl>
5.664252

> <Eintl>
1.495714

> <RecConf>
ND

> <projPath>
Cereblon_maps/

> <NAME_>
Cereblon_3PE1_1.pdb

$$$$
