Cereblon_6YBL_6.pdb
  MOLSOFT 04032206303D

 29 31  0  0  1  0  0  0  0  0999 V2000
   78.9976   42.4876   42.6763 C   0  0  0  0  0  0  0  0  0  0  0  0
   78.1850   42.1913   41.5966 C   0  0  0  0  0  0  0  0  0  0  0  0
   77.2671   41.0740   41.4088 C   0  0  0  0  0  0  0  0  0  0  0  0
   77.0848   40.2135   42.2563 O   0  0  0  0  0  0  0  0  0  0  0  0
   76.7290   41.2173   40.1432 N   0  0  0  0  0  0  0  0  0  0  0  0
   77.2247   42.3461   39.5229 C   0  0  0  0  0  0  0  0  0  0  0  0
   76.9882   42.7671   38.3976 O   0  0  0  0  0  0  0  0  0  0  0  0
   78.1598   42.9556   40.4692 C   0  0  0  0  0  0  0  0  0  0  0  0
   78.9563   44.0742   40.3316 C   0  0  0  0  0  0  0  0  0  0  0  0
   79.7954   44.3832   41.3965 C   0  0  0  0  0  0  0  0  0  0  0  0
   79.8154   43.6046   42.5542 C   0  0  0  0  0  0  0  0  0  0  0  0
   75.7181   40.3656   39.5104 C   0  0  2  0  0  0  0  0  0  0  0  0
   74.3388   40.9355   39.8006 C   0  0  0  0  0  0  0  0  0  0  0  0
   74.1540   42.1216   40.0170 O   0  0  0  0  0  0  0  0  0  0  0  0
   73.2870   40.0553   39.7233 N   0  0  0  0  0  0  0  0  0  0  0  0
   73.3232   38.7098   39.4505 C   0  0  0  0  0  0  0  0  0  0  0  0
   72.3066   38.0378   39.3928 O   0  0  0  0  0  0  0  0  0  0  0  0
   74.6871   38.1270   39.1726 C   0  0  0  0  0  0  0  0  0  0  0  0
   75.7701   38.8943   39.9105 C   0  0  0  0  0  0  0  0  0  0  0  0
   79.0062   41.8712   43.5711 H   0  0  0  0  0  0  0  0  0  0  0  0
   78.9264   44.6776   39.4322 H   0  0  0  0  0  0  0  0  0  0  0  0
   80.4409   45.2514   41.3310 H   0  0  0  0  0  0  0  0  0  0  0  0
   80.4779   43.8750   43.3716 H   0  0  0  0  0  0  0  0  0  0  0  0
   75.8568   40.4547   38.4309 H   0  0  0  0  0  0  0  0  0  0  0  0
   72.3693   40.4503   39.8872 H   0  0  0  0  0  0  0  0  0  0  0  0
   74.6924   37.0807   39.4941 H   0  0  0  0  0  0  0  0  0  0  0  0
   74.8483   38.1506   38.0904 H   0  0  0  0  0  0  0  0  0  0  0  0
   76.7552   38.4715   39.6876 H   0  0  0  0  0  0  0  0  0  0  0  0
   75.6067   38.7742   40.9851 H   0  0  0  0  0  0  0  0  0  0  0  0
  1 20  1  0  0  0  0
  1  2  1  0  0  0  0
  1 11  2  0  0  0  0
  2  3  1  0  0  0  0
  2  8  2  0  0  0  0
  3  4  2  0  0  0  0
  3  5  1  0  0  0  0
  5  6  1  0  0  0  0
 12  5  1  0  0  0  0
  6  7  2  0  0  0  0
  6  8  1  0  0  0  0
  8  9  1  0  0  0  0
  9 21  1  0  0  0  0
  9 10  2  0  0  0  0
 10 22  1  0  0  0  0
 10 11  1  0  0  0  0
 11 23  1  0  0  0  0
 12 24  1  0  0  0  0
 12 13  1  0  0  0  0
 12 19  1  0  0  0  0
 13 14  2  0  0  0  0
 13 15  1  0  0  0  0
 15 25  1  0  0  0  0
 15 16  1  0  0  0  0
 16 17  2  0  0  0  0
 16 18  1  0  0  0  0
 18 26  1  0  0  0  0
 18 27  1  0  0  0  0
 18 19  1  0  0  0  0
 19 28  1  0  0  0  0
 19 29  1  0  0  0  0
M  ZZC   1 c1
M  ZZC   2 c2
M  ZZC   3 c3
M  ZZC   4 o1
M  ZZC   5 n1
M  ZZC   6 c4
M  ZZC   7 o2
M  ZZC   8 c5
M  ZZC   9 c6
M  ZZC  10 c7
M  ZZC  11 c8
M  ZZC  12 c9
M  ZZC  13 c10
M  ZZC  14 o3
M  ZZC  15 n2
M  ZZC  16 c11
M  ZZC  17 o4
M  ZZC  18 c12
M  ZZC  19 c13
M  ZZC  20 h11
M  ZZC  21 h61
M  ZZC  22 h71
M  ZZC  23 h81
M  ZZC  24 h91
M  ZZC  25 h21
M  ZZC  26 h121
M  ZZC  27 h122
M  ZZC  28 h131
M  ZZC  29 h132
M  ZZM   1 37
M  ZZI   1 125
M  ZZM   2 37
M  ZZI   2 124
M  ZZM   3 3
M  ZZI   3 121
M  ZZM   4 7
M  ZZI   4 81
M  ZZM   5 10
M  ZZI   5 192
M  ZZM   6 3
M  ZZI   6 121
M  ZZM   7 7
M  ZZI   7 81
M  ZZM   8 37
M  ZZI   8 124
M  ZZM   9 37
M  ZZI   9 125
M  ZZM  10 37
M  ZZI  10 125
M  ZZM  11 37
M  ZZI  11 125
M  ZZM  12 1
M  ZZI  12 113
M  ZZM  13 3
M  ZZI  13 121
M  ZZM  14 7
M  ZZI  14 81
M  ZZM  15 10
M  ZZI  15 191
M  ZZM  16 3
M  ZZI  16 121
M  ZZM  17 7
M  ZZI  17 81
M  ZZM  18 1
M  ZZI  18 112
M  ZZM  19 1
M  ZZI  19 112
M  ZZM  20 5
M  ZZI  20 1
M  ZZM  21 5
M  ZZI  21 1
M  ZZM  22 5
M  ZZI  22 1
M  ZZM  23 5
M  ZZI  23 1
M  ZZM  24 5
M  ZZI  24 1
M  ZZM  25 28
M  ZZI  25 11
M  ZZM  26 5
M  ZZI  26 1
M  ZZM  27 5
M  ZZI  27 1
M  ZZM  28 5
M  ZZI  28 1
M  ZZM  29 5
M  ZZI  29 1
M  END
> <IX>
1

> <NAME>
Cereblon_6YBL_6.pdb

> <Score>
-19.325801

> <Natom>
29

> <Nflex>
1

> <Hbond>
-3.362287

> <Hphob>
-3.569016

> <VwInt>
-22.676166

> <Dsolv>
12.055953

> <SolEl>
5.649209

> <Eintl>
1.462914

> <RecConf>
ND

> <projPath>
Cereblon_maps/

> <NAME_>
Cereblon_6YBL_6.pdb

$$$$
