Cereblon_4QNQ_46.pdb
  MOLSOFT 04032206243D

 31 33  0  0  1  0  0  0  0  0999 V2000
   76.7309   41.9955   40.4746 N   0  0  0  0  0  0  0  0  0  0  0  0
   76.3219   40.6857   40.1801 C   0  0  0  0  0  0  0  0  0  0  0  0
   75.2241   40.4179   39.3812 C   0  0  0  0  0  0  0  0  0  0  0  0
   74.3448   41.3495   38.6855 C   0  0  0  0  0  0  0  0  0  0  0  0
   74.4030   42.5591   38.8484 O   0  0  0  0  0  0  0  0  0  0  0  0
   73.4817   40.5832   37.9248 N   0  0  0  0  0  0  0  0  0  0  0  0
   73.6919   39.2393   38.1637 C   0  0  0  0  0  0  0  0  0  0  0  0
   73.1000   38.2680   37.7158 O   0  0  0  0  0  0  0  0  0  0  0  0
   74.8114   39.1532   39.0997 C   0  0  0  0  0  0  0  0  0  0  0  0
   75.4266   38.0441   39.6490 C   0  0  0  0  0  0  0  0  0  0  0  0
   76.4943   38.2827   40.5061 C   0  0  0  0  0  0  0  0  0  0  0  0
   76.9268   39.5822   40.7737 C   0  0  0  0  0  0  0  0  0  0  0  0
   72.3974   41.0789   37.0649 C   0  0  1  0  0  0  0  0  0  0  0  0
   71.1530   41.3418   37.9070 C   0  0  0  0  0  0  0  0  0  0  0  0
   70.8932   40.7255   38.9300 O   0  0  0  0  0  0  0  0  0  0  0  0
   70.2676   42.2638   37.3994 N   0  0  0  0  0  0  0  0  0  0  0  0
   70.3853   43.0466   36.2824 C   0  0  0  0  0  0  0  0  0  0  0  0
   69.5642   43.9144   36.0302 O   0  0  0  0  0  0  0  0  0  0  0  0
   71.5704   42.7459   35.4008 C   0  0  0  0  0  0  0  0  0  0  0  0
   72.7620   42.3133   36.2395 C   0  0  0  0  0  0  0  0  0  0  0  0
   77.6683   42.1270   40.8493 H   0  0  0  0  0  0  0  0  0  0  0  0
   76.3441   42.7531   39.9115 H   0  0  0  0  0  0  0  0  0  0  0  0
   75.0910   37.0357   39.4253 H   0  0  0  0  0  0  0  0  0  0  0  0
   77.0029   37.4444   40.9723 H   0  0  0  0  0  0  0  0  0  0  0  0
   77.7610   39.7321   41.4519 H   0  0  0  0  0  0  0  0  0  0  0  0
   72.1271   40.2658   36.3811 H   0  0  0  0  0  0  0  0  0  0  0  0
   69.4405   42.4346   37.9525 H   0  0  0  0  0  0  0  0  0  0  0  0
   71.2836   41.9680   34.6851 H   0  0  0  0  0  0  0  0  0  0  0  0
   71.8181   43.6493   34.8386 H   0  0  0  0  0  0  0  0  0  0  0  0
   73.6189   42.0965   35.5937 H   0  0  0  0  0  0  0  0  0  0  0  0
   73.0558   43.1483   36.8828 H   0  0  0  0  0  0  0  0  0  0  0  0
  1  2  1  0  0  0  0
  1 21  1  0  0  0  0
  1 22  1  0  0  0  0
  2  3  1  0  0  0  0
  2 12  2  0  0  0  0
  3  9  2  0  0  0  0
  3  4  1  0  0  0  0
  4  5  2  0  0  0  0
  4  6  1  0  0  0  0
  6  7  1  0  0  0  0
 13  6  1  0  0  0  0
  7  8  2  0  0  0  0
  7  9  1  0  0  0  0
  9 10  1  0  0  0  0
 10 23  1  0  0  0  0
 10 11  2  0  0  0  0
 11 12  1  0  0  0  0
 11 24  1  0  0  0  0
 12 25  1  0  0  0  0
 13 26  1  0  0  0  0
 13 14  1  0  0  0  0
 13 20  1  0  0  0  0
 14 15  2  0  0  0  0
 14 16  1  0  0  0  0
 16 27  1  0  0  0  0
 16 17  1  0  0  0  0
 17 18  2  0  0  0  0
 17 19  1  0  0  0  0
 19 28  1  0  0  0  0
 19 29  1  0  0  0  0
 19 20  1  0  0  0  0
 20 30  1  0  0  0  0
 20 31  1  0  0  0  0
M  ZZC   1 n1
M  ZZC   2 c1
M  ZZC   3 c2
M  ZZC   4 c3
M  ZZC   5 o1
M  ZZC   6 n2
M  ZZC   7 c4
M  ZZC   8 o2
M  ZZC   9 c5
M  ZZC  10 c6
M  ZZC  11 c7
M  ZZC  12 c8
M  ZZC  13 c9
M  ZZC  14 c10
M  ZZC  15 o3
M  ZZC  16 n3
M  ZZC  17 c11
M  ZZC  18 o4
M  ZZC  19 c12
M  ZZC  20 c13
M  ZZC  21 h11
M  ZZC  22 h12
M  ZZC  23 h61
M  ZZC  24 h71
M  ZZC  25 h81
M  ZZC  26 h91
M  ZZC  27 h31
M  ZZC  28 h121
M  ZZC  29 h122
M  ZZC  30 h131
M  ZZC  31 h132
M  ZZM   1 40
M  ZZI   1 224
M  ZZM   2 37
M  ZZI   2 124
M  ZZM   3 37
M  ZZI   3 124
M  ZZM   4 3
M  ZZI   4 121
M  ZZM   5 7
M  ZZI   5 81
M  ZZM   6 10
M  ZZI   6 192
M  ZZM   7 3
M  ZZI   7 121
M  ZZM   8 7
M  ZZI   8 81
M  ZZM   9 37
M  ZZI   9 124
M  ZZM  10 37
M  ZZI  10 125
M  ZZM  11 37
M  ZZI  11 125
M  ZZM  12 37
M  ZZI  12 125
M  ZZM  13 1
M  ZZI  13 113
M  ZZM  14 3
M  ZZI  14 121
M  ZZM  15 7
M  ZZI  15 81
M  ZZM  16 10
M  ZZI  16 191
M  ZZM  17 3
M  ZZI  17 121
M  ZZM  18 7
M  ZZI  18 81
M  ZZM  19 1
M  ZZI  19 112
M  ZZM  20 1
M  ZZI  20 112
M  ZZM  21 28
M  ZZI  21 11
M  ZZM  22 28
M  ZZI  22 11
M  ZZM  23 5
M  ZZI  23 1
M  ZZM  24 5
M  ZZI  24 1
M  ZZM  25 5
M  ZZI  25 1
M  ZZM  26 5
M  ZZI  26 1
M  ZZM  27 28
M  ZZI  27 11
M  ZZM  28 5
M  ZZI  28 1
M  ZZM  29 5
M  ZZI  29 1
M  ZZM  30 5
M  ZZI  30 1
M  ZZM  31 5
M  ZZI  31 1
M  END
> <IX>
1

> <NAME>
Cereblon_4QNQ_46.pdb

> <Score>
-19.568045

> <Natom>
31

> <Nflex>
1

> <Hbond>
-4.808383

> <Hphob>
-3.481195

> <VwInt>
-25.338444

> <Dsolv>
15.859894

> <SolEl>
10.520928

> <Eintl>
1.382125

> <RecConf>
ND

> <projPath>
Cereblon_maps/

> <NAME_>
Cereblon_4QNQ_46.pdb

$$$$
