Cereblon_5G0I_18.pdb
  MOLSOFT 04032206243D

 31 33  0  0  1  0  0  0  0  0999 V2000
   78.8273   41.6729   43.8032 N   0  0  0  0  0  0  0  0  0  0  0  0
   78.8993   42.4347   42.6265 C   0  0  0  0  0  0  0  0  0  0  0  0
   78.0967   42.1657   41.5305 C   0  0  0  0  0  0  0  0  0  0  0  0
   77.1641   41.0642   41.3286 C   0  0  0  0  0  0  0  0  0  0  0  0
   76.9867   40.1800   42.1539 O   0  0  0  0  0  0  0  0  0  0  0  0
   76.6168   41.2331   40.0723 N   0  0  0  0  0  0  0  0  0  0  0  0
   77.1566   42.3420   39.4513 C   0  0  0  0  0  0  0  0  0  0  0  0
   76.9553   42.7504   38.3149 O   0  0  0  0  0  0  0  0  0  0  0  0
   78.0952   42.9325   40.4048 C   0  0  0  0  0  0  0  0  0  0  0  0
   78.9122   44.0377   40.2802 C   0  0  0  0  0  0  0  0  0  0  0  0
   79.7377   44.3317   41.3617 C   0  0  0  0  0  0  0  0  0  0  0  0
   79.7204   43.5536   42.5213 C   0  0  0  0  0  0  0  0  0  0  0  0
   75.6076   40.3911   39.4261 C   0  0  2  0  0  0  0  0  0  0  0  0
   74.2368   40.9805   39.7104 C   0  0  0  0  0  0  0  0  0  0  0  0
   74.0718   42.1602   39.9751 O   0  0  0  0  0  0  0  0  0  0  0  0
   73.1713   40.1264   39.5683 N   0  0  0  0  0  0  0  0  0  0  0  0
   73.1920   38.7881   39.2588 C   0  0  0  0  0  0  0  0  0  0  0  0
   72.1622   38.1486   39.1179 O   0  0  0  0  0  0  0  0  0  0  0  0
   74.5543   38.1681   39.0559 C   0  0  0  0  0  0  0  0  0  0  0  0
   75.6294   38.9196   39.8221 C   0  0  0  0  0  0  0  0  0  0  0  0
   79.5963   41.7010   44.4696 H   0  0  0  0  0  0  0  0  0  0  0  0
   78.2256   40.8475   43.8070 H   0  0  0  0  0  0  0  0  0  0  0  0
   78.9019   44.6436   39.3819 H   0  0  0  0  0  0  0  0  0  0  0  0
   80.4002   45.1886   41.3108 H   0  0  0  0  0  0  0  0  0  0  0  0
   80.3650   43.8243   43.3521 H   0  0  0  0  0  0  0  0  0  0  0  0
   75.7563   40.4859   38.3493 H   0  0  0  0  0  0  0  0  0  0  0  0
   72.2562   40.5387   39.7030 H   0  0  0  0  0  0  0  0  0  0  0  0
   74.5173   37.1287   39.3974 H   0  0  0  0  0  0  0  0  0  0  0  0
   74.7632   38.1630   37.9818 H   0  0  0  0  0  0  0  0  0  0  0  0
   75.4365   38.7984   40.8918 H   0  0  0  0  0  0  0  0  0  0  0  0
   76.6145   38.4844   39.6250 H   0  0  0  0  0  0  0  0  0  0  0  0
  1  2  1  0  0  0  0
  1 21  1  0  0  0  0
  1 22  1  0  0  0  0
  2  3  1  0  0  0  0
  2 12  2  0  0  0  0
  3  9  2  0  0  0  0
  3  4  1  0  0  0  0
  4  5  2  0  0  0  0
  4  6  1  0  0  0  0
  6  7  1  0  0  0  0
 13  6  1  0  0  0  0
  7  8  2  0  0  0  0
  7  9  1  0  0  0  0
  9 10  1  0  0  0  0
 10 23  1  0  0  0  0
 10 11  2  0  0  0  0
 11 12  1  0  0  0  0
 11 24  1  0  0  0  0
 12 25  1  0  0  0  0
 13 26  1  0  0  0  0
 13 14  1  0  0  0  0
 13 20  1  0  0  0  0
 14 15  2  0  0  0  0
 14 16  1  0  0  0  0
 16 27  1  0  0  0  0
 16 17  1  0  0  0  0
 17 18  2  0  0  0  0
 17 19  1  0  0  0  0
 19 28  1  0  0  0  0
 19 29  1  0  0  0  0
 19 20  1  0  0  0  0
 20 30  1  0  0  0  0
 20 31  1  0  0  0  0
M  ZZC   1 n1
M  ZZC   2 c1
M  ZZC   3 c2
M  ZZC   4 c3
M  ZZC   5 o1
M  ZZC   6 n2
M  ZZC   7 c4
M  ZZC   8 o2
M  ZZC   9 c5
M  ZZC  10 c6
M  ZZC  11 c7
M  ZZC  12 c8
M  ZZC  13 c9
M  ZZC  14 c10
M  ZZC  15 o3
M  ZZC  16 n3
M  ZZC  17 c11
M  ZZC  18 o4
M  ZZC  19 c12
M  ZZC  20 c13
M  ZZC  21 h11
M  ZZC  22 h12
M  ZZC  23 h61
M  ZZC  24 h71
M  ZZC  25 h81
M  ZZC  26 h91
M  ZZC  27 h31
M  ZZC  28 h121
M  ZZC  29 h122
M  ZZC  30 h131
M  ZZC  31 h132
M  ZZM   1 40
M  ZZI   1 224
M  ZZM   2 37
M  ZZI   2 124
M  ZZM   3 37
M  ZZI   3 124
M  ZZM   4 3
M  ZZI   4 121
M  ZZM   5 7
M  ZZI   5 81
M  ZZM   6 10
M  ZZI   6 192
M  ZZM   7 3
M  ZZI   7 121
M  ZZM   8 7
M  ZZI   8 81
M  ZZM   9 37
M  ZZI   9 124
M  ZZM  10 37
M  ZZI  10 125
M  ZZM  11 37
M  ZZI  11 125
M  ZZM  12 37
M  ZZI  12 125
M  ZZM  13 1
M  ZZI  13 113
M  ZZM  14 3
M  ZZI  14 121
M  ZZM  15 7
M  ZZI  15 81
M  ZZM  16 10
M  ZZI  16 191
M  ZZM  17 3
M  ZZI  17 121
M  ZZM  18 7
M  ZZI  18 81
M  ZZM  19 1
M  ZZI  19 112
M  ZZM  20 1
M  ZZI  20 112
M  ZZM  21 28
M  ZZI  21 11
M  ZZM  22 28
M  ZZI  22 11
M  ZZM  23 5
M  ZZI  23 1
M  ZZM  24 5
M  ZZI  24 1
M  ZZM  25 5
M  ZZI  25 1
M  ZZM  26 5
M  ZZI  26 1
M  ZZM  27 28
M  ZZI  27 11
M  ZZM  28 5
M  ZZI  28 1
M  ZZM  29 5
M  ZZI  29 1
M  ZZM  30 5
M  ZZI  30 1
M  ZZM  31 5
M  ZZI  31 1
M  END
> <IX>
1

> <NAME>
Cereblon_5G0I_18.pdb

> <Score>
-18.63864

> <Natom>
31

> <Nflex>
1

> <Hbond>
-3.713516

> <Hphob>
-3.564994

> <VwInt>
-24.38357

> <Dsolv>
15.371315

> <SolEl>
6.336582

> <Eintl>
2.030066

> <RecConf>
ND

> <projPath>
Cereblon_maps/

> <NAME_>
Cereblon_5G0I_18.pdb

$$$$
