Cereblon_6NUQ_7.pdb
  MOLSOFT 04032206293D

 30 32  0  0  1  0  0  0  0  0999 V2000
   75.2592   39.9246   40.0783 C   0  0  0  0  0  0  0  0  0  0  0  0
   74.5296   40.5204   39.0642 C   0  0  0  0  0  0  0  0  0  0  0  0
   74.9232   41.7231   38.5558 C   0  0  0  0  0  0  0  0  0  0  0  0
   74.0051   42.0884   37.4776 C   0  0  0  0  0  0  0  0  0  0  0  0
   74.1574   43.0943   36.8051 O   0  0  0  0  0  0  0  0  0  0  0  0
   73.0473   41.0914   37.4000 N   0  0  0  0  0  0  0  0  0  0  0  0
   71.9269   40.9829   36.4445 C   0  0  1  0  0  0  0  0  0  0  0  0
   70.5683   41.0211   37.1450 C   0  0  0  0  0  0  0  0  0  0  0  0
   70.1734   40.1404   37.8940 O   0  0  0  0  0  0  0  0  0  0  0  0
   69.7712   42.1129   36.9191 N   0  0  0  0  0  0  0  0  0  0  0  0
   70.0239   43.2242   36.1754 C   0  0  0  0  0  0  0  0  0  0  0  0
   69.1868   44.1037   36.0854 O   0  0  0  0  0  0  0  0  0  0  0  0
   71.3870   43.3170   35.5598 C   0  0  0  0  0  0  0  0  0  0  0  0
   71.9403   41.9340   35.2422 C   0  0  0  0  0  0  0  0  0  0  0  0
   73.3017   40.0428   38.3781 C   0  0  0  0  0  0  0  0  0  0  0  0
   76.0257   42.4183   39.0171 C   0  0  0  0  0  0  0  0  0  0  0  0
   76.7422   41.8412   40.0533 C   0  0  0  0  0  0  0  0  0  0  0  0
   76.3654   40.6050   40.5728 C   0  0  0  0  0  0  0  0  0  0  0  0
   74.9750   38.9575   40.4813 H   0  0  0  0  0  0  0  0  0  0  0  0
   72.0170   39.9734   36.0278 H   0  0  0  0  0  0  0  0  0  0  0  0
   68.8485   42.0886   37.3359 H   0  0  0  0  0  0  0  0  0  0  0  0
   71.2986   43.8972   34.6378 H   0  0  0  0  0  0  0  0  0  0  0  0
   72.0196   43.8798   36.2484 H   0  0  0  0  0  0  0  0  0  0  0  0
   71.3112   41.4994   34.4563 H   0  0  0  0  0  0  0  0  0  0  0  0
   72.9427   42.0138   34.8135 H   0  0  0  0  0  0  0  0  0  0  0  0
   73.4704   39.0915   37.8613 H   0  0  0  0  0  0  0  0  0  0  0  0
   72.4641   39.9728   39.0797 H   0  0  0  0  0  0  0  0  0  0  0  0
   76.3207   43.3724   38.5922 H   0  0  0  0  0  0  0  0  0  0  0  0
   77.6109   42.3536   40.4558 H   0  0  0  0  0  0  0  0  0  0  0  0
   76.9487   40.1660   41.3765 H   0  0  0  0  0  0  0  0  0  0  0  0
  1 19  1  0  0  0  0
  1 18  2  0  0  0  0
  1  2  1  0  0  0  0
  2  3  2  0  0  0  0
  2 15  1  0  0  0  0
  3 16  1  0  0  0  0
  3  4  1  0  0  0  0
  4  6  1  0  0  0  0
  4  5  2  0  0  0  0
  6 15  1  0  0  0  0
  7  6  1  0  0  0  0
  7 20  1  0  0  0  0
  7  8  1  0  0  0  0
  7 14  1  0  0  0  0
  8  9  2  0  0  0  0
  8 10  1  0  0  0  0
 10 21  1  0  0  0  0
 10 11  1  0  0  0  0
 11 12  2  0  0  0  0
 11 13  1  0  0  0  0
 13 22  1  0  0  0  0
 13 23  1  0  0  0  0
 13 14  1  0  0  0  0
 14 24  1  0  0  0  0
 14 25  1  0  0  0  0
 15 26  1  0  0  0  0
 15 27  1  0  0  0  0
 16 17  2  0  0  0  0
 16 28  1  0  0  0  0
 17 18  1  0  0  0  0
 17 29  1  0  0  0  0
 18 30  1  0  0  0  0
M  ZZC   1 c1
M  ZZC   2 c2
M  ZZC   3 c3
M  ZZC   4 c4
M  ZZC   5 o1
M  ZZC   6 n1
M  ZZC   7 c5
M  ZZC   8 c6
M  ZZC   9 o2
M  ZZC  10 n2
M  ZZC  11 c7
M  ZZC  12 o3
M  ZZC  13 c8
M  ZZC  14 c9
M  ZZC  15 c10
M  ZZC  16 c11
M  ZZC  17 c12
M  ZZC  18 c13
M  ZZC  19 h11
M  ZZC  20 h51
M  ZZC  21 h21
M  ZZC  22 h81
M  ZZC  23 h82
M  ZZC  24 h91
M  ZZC  25 h92
M  ZZC  26 h101
M  ZZC  27 h102
M  ZZC  28 h111
M  ZZC  29 h121
M  ZZC  30 h131
M  ZZM   1 37
M  ZZI   1 125
M  ZZM   2 37
M  ZZI   2 124
M  ZZM   3 37
M  ZZI   3 124
M  ZZM   4 3
M  ZZI   4 121
M  ZZM   5 7
M  ZZI   5 81
M  ZZM   6 10
M  ZZI   6 192
M  ZZM   7 1
M  ZZI   7 113
M  ZZM   8 3
M  ZZI   8 121
M  ZZM   9 7
M  ZZI   9 81
M  ZZM  10 10
M  ZZI  10 191
M  ZZM  11 3
M  ZZI  11 121
M  ZZM  12 7
M  ZZI  12 81
M  ZZM  13 1
M  ZZI  13 112
M  ZZM  14 1
M  ZZI  14 112
M  ZZM  15 1
M  ZZI  15 112
M  ZZM  16 37
M  ZZI  16 125
M  ZZM  17 37
M  ZZI  17 125
M  ZZM  18 37
M  ZZI  18 125
M  ZZM  19 5
M  ZZI  19 1
M  ZZM  20 5
M  ZZI  20 1
M  ZZM  21 28
M  ZZI  21 11
M  ZZM  22 5
M  ZZI  22 1
M  ZZM  23 5
M  ZZI  23 1
M  ZZM  24 5
M  ZZI  24 1
M  ZZM  25 5
M  ZZI  25 1
M  ZZM  26 5
M  ZZI  26 1
M  ZZM  27 5
M  ZZI  27 1
M  ZZM  28 5
M  ZZI  28 1
M  ZZM  29 5
M  ZZI  29 1
M  ZZM  30 5
M  ZZI  30 1
M  END
> <IX>
1

> <NAME>
Cereblon_6NUQ_7.pdb

> <Score>
-17.056233

> <Natom>
30

> <Nflex>
1

> <Hbond>
-4.507293

> <Hphob>
-3.66739

> <VwInt>
-21.674249

> <Dsolv>
13.997699

> <SolEl>
5.336446

> <Eintl>
6.430484

> <RecConf>
ND

> <projPath>
Cereblon_maps/

> <NAME_>
Cereblon_6NUQ_7.pdb

$$$$
