Cereblon_2HYY_12.pdb
  MOLSOFT 04032206203D

 31 33  0  0  1  0  0  0  0  0999 V2000
   78.8171   41.6874   43.8132 N   0  0  0  0  0  0  0  0  0  0  0  0
   78.9022   42.4353   42.6289 C   0  0  0  0  0  0  0  0  0  0  0  0
   78.0989   42.1639   41.5343 C   0  0  0  0  0  0  0  0  0  0  0  0
   77.1784   41.0523   41.3304 C   0  0  0  0  0  0  0  0  0  0  0  0
   76.9929   40.1748   42.1606 O   0  0  0  0  0  0  0  0  0  0  0  0
   76.6472   41.2105   40.0657 N   0  0  0  0  0  0  0  0  0  0  0  0
   77.1664   42.3307   39.4494 C   0  0  0  0  0  0  0  0  0  0  0  0
   76.9516   42.7511   38.3199 O   0  0  0  0  0  0  0  0  0  0  0  0
   78.0971   42.9299   40.4081 C   0  0  0  0  0  0  0  0  0  0  0  0
   78.9079   44.0393   40.2845 C   0  0  0  0  0  0  0  0  0  0  0  0
   79.7250   44.3416   41.3674 C   0  0  0  0  0  0  0  0  0  0  0  0
   79.7120   43.5623   42.5259 C   0  0  0  0  0  0  0  0  0  0  0  0
   75.6264   40.3731   39.4322 C   0  0  2  0  0  0  0  0  0  0  0  0
   74.2550   40.9500   39.7396 C   0  0  0  0  0  0  0  0  0  0  0  0
   74.0837   42.1304   39.9954 O   0  0  0  0  0  0  0  0  0  0  0  0
   73.1953   40.0831   39.6293 N   0  0  0  0  0  0  0  0  0  0  0  0
   73.2211   38.7453   39.3172 C   0  0  0  0  0  0  0  0  0  0  0  0
   72.1968   38.0907   39.2112 O   0  0  0  0  0  0  0  0  0  0  0  0
   74.5844   38.1484   39.0609 C   0  0  0  0  0  0  0  0  0  0  0  0
   75.6624   38.8992   39.8225 C   0  0  0  0  0  0  0  0  0  0  0  0
   79.5283   41.7989   44.5326 H   0  0  0  0  0  0  0  0  0  0  0  0
   78.3011   40.8062   43.7911 H   0  0  0  0  0  0  0  0  0  0  0  0
   78.9005   44.6448   39.3859 H   0  0  0  0  0  0  0  0  0  0  0  0
   80.3749   45.2083   41.3196 H   0  0  0  0  0  0  0  0  0  0  0  0
   80.3465   43.8444   43.3606 H   0  0  0  0  0  0  0  0  0  0  0  0
   75.7586   40.4720   38.3536 H   0  0  0  0  0  0  0  0  0  0  0  0
   72.2799   40.4838   39.7924 H   0  0  0  0  0  0  0  0  0  0  0  0
   74.5716   37.1006   39.3777 H   0  0  0  0  0  0  0  0  0  0  0  0
   74.7699   38.1743   37.9827 H   0  0  0  0  0  0  0  0  0  0  0  0
   75.4797   38.7726   40.8936 H   0  0  0  0  0  0  0  0  0  0  0  0
   76.6472   38.4692   39.6137 H   0  0  0  0  0  0  0  0  0  0  0  0
  1  2  1  0  0  0  0
  1 21  1  0  0  0  0
  1 22  1  0  0  0  0
  2  3  1  0  0  0  0
  2 12  2  0  0  0  0
  3  9  2  0  0  0  0
  3  4  1  0  0  0  0
  4  5  2  0  0  0  0
  4  6  1  0  0  0  0
  6  7  1  0  0  0  0
 13  6  1  0  0  0  0
  7  8  2  0  0  0  0
  7  9  1  0  0  0  0
  9 10  1  0  0  0  0
 10 23  1  0  0  0  0
 10 11  2  0  0  0  0
 11 12  1  0  0  0  0
 11 24  1  0  0  0  0
 12 25  1  0  0  0  0
 13 26  1  0  0  0  0
 13 14  1  0  0  0  0
 13 20  1  0  0  0  0
 14 15  2  0  0  0  0
 14 16  1  0  0  0  0
 16 27  1  0  0  0  0
 16 17  1  0  0  0  0
 17 18  2  0  0  0  0
 17 19  1  0  0  0  0
 19 28  1  0  0  0  0
 19 29  1  0  0  0  0
 19 20  1  0  0  0  0
 20 30  1  0  0  0  0
 20 31  1  0  0  0  0
M  ZZC   1 n1
M  ZZC   2 c1
M  ZZC   3 c2
M  ZZC   4 c3
M  ZZC   5 o1
M  ZZC   6 n2
M  ZZC   7 c4
M  ZZC   8 o2
M  ZZC   9 c5
M  ZZC  10 c6
M  ZZC  11 c7
M  ZZC  12 c8
M  ZZC  13 c9
M  ZZC  14 c10
M  ZZC  15 o3
M  ZZC  16 n3
M  ZZC  17 c11
M  ZZC  18 o4
M  ZZC  19 c12
M  ZZC  20 c13
M  ZZC  21 h11
M  ZZC  22 h12
M  ZZC  23 h61
M  ZZC  24 h71
M  ZZC  25 h81
M  ZZC  26 h91
M  ZZC  27 h31
M  ZZC  28 h121
M  ZZC  29 h122
M  ZZC  30 h131
M  ZZC  31 h132
M  ZZM   1 40
M  ZZI   1 224
M  ZZM   2 37
M  ZZI   2 124
M  ZZM   3 37
M  ZZI   3 124
M  ZZM   4 3
M  ZZI   4 121
M  ZZM   5 7
M  ZZI   5 81
M  ZZM   6 10
M  ZZI   6 192
M  ZZM   7 3
M  ZZI   7 121
M  ZZM   8 7
M  ZZI   8 81
M  ZZM   9 37
M  ZZI   9 124
M  ZZM  10 37
M  ZZI  10 125
M  ZZM  11 37
M  ZZI  11 125
M  ZZM  12 37
M  ZZI  12 125
M  ZZM  13 1
M  ZZI  13 113
M  ZZM  14 3
M  ZZI  14 121
M  ZZM  15 7
M  ZZI  15 81
M  ZZM  16 10
M  ZZI  16 191
M  ZZM  17 3
M  ZZI  17 121
M  ZZM  18 7
M  ZZI  18 81
M  ZZM  19 1
M  ZZI  19 112
M  ZZM  20 1
M  ZZI  20 112
M  ZZM  21 28
M  ZZI  21 11
M  ZZM  22 28
M  ZZI  22 11
M  ZZM  23 5
M  ZZI  23 1
M  ZZM  24 5
M  ZZI  24 1
M  ZZM  25 5
M  ZZI  25 1
M  ZZM  26 5
M  ZZI  26 1
M  ZZM  27 28
M  ZZI  27 11
M  ZZM  28 5
M  ZZI  28 1
M  ZZM  29 5
M  ZZI  29 1
M  ZZM  30 5
M  ZZI  30 1
M  ZZM  31 5
M  ZZI  31 1
M  END
> <IX>
1

> <NAME>
Cereblon_2HYY_12.pdb

> <Score>
-18.662803

> <Natom>
31

> <Nflex>
1

> <Hbond>
-3.672203

> <Hphob>
-3.610337

> <VwInt>
-24.243408

> <Dsolv>
15.187872

> <SolEl>
6.540927

> <Eintl>
1.637146

> <RecConf>
ND

> <projPath>
Cereblon_maps/

> <NAME_>
Cereblon_2HYY_12.pdb

$$$$
