Cereblon_5L2I_17.pdb
  MOLSOFT 04032206253D

 31 33  0  0  1  0  0  0  0  0999 V2000
   81.6197   53.0741   19.7077 N   0  0  0  0  0  0  0  0  0  0  0  0
   81.9316   54.4395   19.7378 C   0  0  0  0  0  0  0  0  0  0  0  0
   81.2297   55.3363   20.5251 C   0  0  0  0  0  0  0  0  0  0  0  0
   80.0289   55.1230   21.3283 C   0  0  0  0  0  0  0  0  0  0  0  0
   79.4225   54.0632   21.4024 O   0  0  0  0  0  0  0  0  0  0  0  0
   79.7591   56.3253   21.9452 N   0  0  0  0  0  0  0  0  0  0  0  0
   80.6712   57.2914   21.5746 C   0  0  0  0  0  0  0  0  0  0  0  0
   80.7442   58.4683   21.8969 O   0  0  0  0  0  0  0  0  0  0  0  0
   81.6093   56.6369   20.6662 C   0  0  0  0  0  0  0  0  0  0  0  0
   82.7257   57.1499   20.0326 C   0  0  0  0  0  0  0  0  0  0  0  0
   83.4588   56.2671   19.2498 C   0  0  0  0  0  0  0  0  0  0  0  0
   83.0774   54.9302   19.1247 C   0  0  0  0  0  0  0  0  0  0  0  0
   78.6162   56.5110   22.8389 C   0  0  2  0  0  0  0  0  0  0  0  0
   77.4663   57.1875   22.1172 C   0  0  0  0  0  0  0  0  0  0  0  0
   77.3307   57.1793   20.9027 O   0  0  0  0  0  0  0  0  0  0  0  0
   76.5166   57.7378   22.9452 N   0  0  0  0  0  0  0  0  0  0  0  0
   76.4983   57.7900   24.3184 C   0  0  0  0  0  0  0  0  0  0  0  0
   75.5312   58.2111   24.9324 O   0  0  0  0  0  0  0  0  0  0  0  0
   77.7199   57.2477   25.0224 C   0  0  0  0  0  0  0  0  0  0  0  0
   78.9337   57.2852   24.1144 C   0  0  0  0  0  0  0  0  0  0  0  0
   82.0373   52.5269   18.9601 H   0  0  0  0  0  0  0  0  0  0  0  0
   80.6516   52.8409   19.9282 H   0  0  0  0  0  0  0  0  0  0  0  0
   83.0241   58.1871   20.1509 H   0  0  0  0  0  0  0  0  0  0  0  0
   84.3524   56.6172   18.7402 H   0  0  0  0  0  0  0  0  0  0  0  0
   83.6880   54.2564   18.5323 H   0  0  0  0  0  0  0  0  0  0  0  0
   78.2502   55.5142   23.0999 H   0  0  0  0  0  0  0  0  0  0  0  0
   75.7233   58.1582   22.4797 H   0  0  0  0  0  0  0  0  0  0  0  0
   77.9068   57.8462   25.9197 H   0  0  0  0  0  0  0  0  0  0  0  0
   77.5093   56.2221   25.3349 H   0  0  0  0  0  0  0  0  0  0  0  0
   79.1862   58.3273   23.8911 H   0  0  0  0  0  0  0  0  0  0  0  0
   79.7964   56.8519   24.6283 H   0  0  0  0  0  0  0  0  0  0  0  0
  1  2  1  0  0  0  0
  1 21  1  0  0  0  0
  1 22  1  0  0  0  0
  2  3  1  0  0  0  0
  2 12  2  0  0  0  0
  3  9  2  0  0  0  0
  3  4  1  0  0  0  0
  4  5  2  0  0  0  0
  4  6  1  0  0  0  0
  6  7  1  0  0  0  0
 13  6  1  0  0  0  0
  7  8  2  0  0  0  0
  7  9  1  0  0  0  0
  9 10  1  0  0  0  0
 10 23  1  0  0  0  0
 10 11  2  0  0  0  0
 11 12  1  0  0  0  0
 11 24  1  0  0  0  0
 12 25  1  0  0  0  0
 13 26  1  0  0  0  0
 13 14  1  0  0  0  0
 13 20  1  0  0  0  0
 14 15  2  0  0  0  0
 14 16  1  0  0  0  0
 16 27  1  0  0  0  0
 16 17  1  0  0  0  0
 17 18  2  0  0  0  0
 17 19  1  0  0  0  0
 19 28  1  0  0  0  0
 19 29  1  0  0  0  0
 19 20  1  0  0  0  0
 20 30  1  0  0  0  0
 20 31  1  0  0  0  0
M  ZZC   1 n1
M  ZZC   2 c1
M  ZZC   3 c2
M  ZZC   4 c3
M  ZZC   5 o1
M  ZZC   6 n2
M  ZZC   7 c4
M  ZZC   8 o2
M  ZZC   9 c5
M  ZZC  10 c6
M  ZZC  11 c7
M  ZZC  12 c8
M  ZZC  13 c9
M  ZZC  14 c10
M  ZZC  15 o3
M  ZZC  16 n3
M  ZZC  17 c11
M  ZZC  18 o4
M  ZZC  19 c12
M  ZZC  20 c13
M  ZZC  21 h11
M  ZZC  22 h12
M  ZZC  23 h61
M  ZZC  24 h71
M  ZZC  25 h81
M  ZZC  26 h91
M  ZZC  27 h31
M  ZZC  28 h121
M  ZZC  29 h122
M  ZZC  30 h131
M  ZZC  31 h132
M  ZZM   1 40
M  ZZI   1 224
M  ZZM   2 37
M  ZZI   2 124
M  ZZM   3 37
M  ZZI   3 124
M  ZZM   4 3
M  ZZI   4 121
M  ZZM   5 7
M  ZZI   5 81
M  ZZM   6 10
M  ZZI   6 192
M  ZZM   7 3
M  ZZI   7 121
M  ZZM   8 7
M  ZZI   8 81
M  ZZM   9 37
M  ZZI   9 124
M  ZZM  10 37
M  ZZI  10 125
M  ZZM  11 37
M  ZZI  11 125
M  ZZM  12 37
M  ZZI  12 125
M  ZZM  13 1
M  ZZI  13 113
M  ZZM  14 3
M  ZZI  14 121
M  ZZM  15 7
M  ZZI  15 81
M  ZZM  16 10
M  ZZI  16 191
M  ZZM  17 3
M  ZZI  17 121
M  ZZM  18 7
M  ZZI  18 81
M  ZZM  19 1
M  ZZI  19 112
M  ZZM  20 1
M  ZZI  20 112
M  ZZM  21 28
M  ZZI  21 11
M  ZZM  22 28
M  ZZI  22 11
M  ZZM  23 5
M  ZZI  23 1
M  ZZM  24 5
M  ZZI  24 1
M  ZZM  25 5
M  ZZI  25 1
M  ZZM  26 5
M  ZZI  26 1
M  ZZM  27 28
M  ZZI  27 11
M  ZZM  28 5
M  ZZI  28 1
M  ZZM  29 5
M  ZZI  29 1
M  ZZM  30 5
M  ZZI  30 1
M  ZZM  31 5
M  ZZI  31 1
M  END
> <IX>
1

> <NAME>
Cereblon_5L2I_17.pdb

> <Score>
-23.012428

> <Natom>
31

> <Nflex>
1

> <Hbond>
-4.441497

> <Hphob>
-3.345772

> <VwInt>
-24.615617

> <Dsolv>
13.960297

> <SolEl>
5.368127

> <Eintl>
0.781094

> <RecConf>
ND

> <projPath>
Cereblon_maps/

> <NAME_>
Cereblon_5L2I_17.pdb

$$$$
