Cereblon_5TRF_7.pdb
  MOLSOFT 04032206273D

 31 33  0  0  1  0  0  0  0  0999 V2000
   78.0716   40.6220   42.6718 N   0  0  0  0  0  0  0  0  0  0  0  0
   78.1286   41.7167   41.7941 C   0  0  0  0  0  0  0  0  0  0  0  0
   77.3068   41.8172   40.6801 C   0  0  0  0  0  0  0  0  0  0  0  0
   76.2392   40.9319   40.2202 C   0  0  0  0  0  0  0  0  0  0  0  0
   75.9853   39.8441   40.7180 O   0  0  0  0  0  0  0  0  0  0  0  0
   75.6251   41.5672   39.1567 N   0  0  0  0  0  0  0  0  0  0  0  0
   76.3549   42.6777   38.7834 C   0  0  0  0  0  0  0  0  0  0  0  0
   76.2570   43.3823   37.7901 O   0  0  0  0  0  0  0  0  0  0  0  0
   77.3875   42.8563   39.8040 C   0  0  0  0  0  0  0  0  0  0  0  0
   78.3304   43.8587   39.9407 C   0  0  0  0  0  0  0  0  0  0  0  0
   79.1927   43.7672   41.0253 C   0  0  0  0  0  0  0  0  0  0  0  0
   79.0896   42.7155   41.9374 C   0  0  0  0  0  0  0  0  0  0  0  0
   74.3810   41.0571   38.5518 C   0  0  1  0  0  0  0  0  0  0  0  0
   73.2373   41.3274   39.5204 C   0  0  0  0  0  0  0  0  0  0  0  0
   73.4070   41.6079   40.6945 O   0  0  0  0  0  0  0  0  0  0  0  0
   71.9705   41.1825   39.0139 N   0  0  0  0  0  0  0  0  0  0  0  0
   71.6005   40.9469   37.7153 C   0  0  0  0  0  0  0  0  0  0  0  0
   70.4402   40.7028   37.4217 O   0  0  0  0  0  0  0  0  0  0  0  0
   72.7225   40.9512   36.6981 C   0  0  0  0  0  0  0  0  0  0  0  0
   73.9566   41.6762   37.2198 C   0  0  0  0  0  0  0  0  0  0  0  0
   78.6459   40.6075   43.5135 H   0  0  0  0  0  0  0  0  0  0  0  0
   77.2715   39.9902   42.6126 H   0  0  0  0  0  0  0  0  0  0  0  0
   78.3939   44.6799   39.2353 H   0  0  0  0  0  0  0  0  0  0  0  0
   79.9511   44.5300   41.1719 H   0  0  0  0  0  0  0  0  0  0  0  0
   79.7761   42.6796   42.7774 H   0  0  0  0  0  0  0  0  0  0  0  0
   74.4805   39.9685   38.4671 H   0  0  0  0  0  0  0  0  0  0  0  0
   71.2155   41.2768   39.6806 H   0  0  0  0  0  0  0  0  0  0  0  0
   72.9612   39.9118   36.4494 H   0  0  0  0  0  0  0  0  0  0  0  0
   72.3645   41.4437   35.7881 H   0  0  0  0  0  0  0  0  0  0  0  0
   74.7553   41.6232   36.4789 H   0  0  0  0  0  0  0  0  0  0  0  0
   73.7227   42.7398   37.3476 H   0  0  0  0  0  0  0  0  0  0  0  0
  1  2  1  0  0  0  0
  1 21  1  0  0  0  0
  1 22  1  0  0  0  0
  2  3  1  0  0  0  0
  2 12  2  0  0  0  0
  3  9  2  0  0  0  0
  3  4  1  0  0  0  0
  4  5  2  0  0  0  0
  4  6  1  0  0  0  0
  6  7  1  0  0  0  0
 13  6  1  0  0  0  0
  7  8  2  0  0  0  0
  7  9  1  0  0  0  0
  9 10  1  0  0  0  0
 10 23  1  0  0  0  0
 10 11  2  0  0  0  0
 11 12  1  0  0  0  0
 11 24  1  0  0  0  0
 12 25  1  0  0  0  0
 13 26  1  0  0  0  0
 13 14  1  0  0  0  0
 13 20  1  0  0  0  0
 14 15  2  0  0  0  0
 14 16  1  0  0  0  0
 16 27  1  0  0  0  0
 16 17  1  0  0  0  0
 17 18  2  0  0  0  0
 17 19  1  0  0  0  0
 19 28  1  0  0  0  0
 19 29  1  0  0  0  0
 19 20  1  0  0  0  0
 20 30  1  0  0  0  0
 20 31  1  0  0  0  0
M  ZZC   1 n1
M  ZZC   2 c1
M  ZZC   3 c2
M  ZZC   4 c3
M  ZZC   5 o1
M  ZZC   6 n2
M  ZZC   7 c4
M  ZZC   8 o2
M  ZZC   9 c5
M  ZZC  10 c6
M  ZZC  11 c7
M  ZZC  12 c8
M  ZZC  13 c9
M  ZZC  14 c10
M  ZZC  15 o3
M  ZZC  16 n3
M  ZZC  17 c11
M  ZZC  18 o4
M  ZZC  19 c12
M  ZZC  20 c13
M  ZZC  21 h11
M  ZZC  22 h12
M  ZZC  23 h61
M  ZZC  24 h71
M  ZZC  25 h81
M  ZZC  26 h91
M  ZZC  27 h31
M  ZZC  28 h121
M  ZZC  29 h122
M  ZZC  30 h131
M  ZZC  31 h132
M  ZZM   1 40
M  ZZI   1 224
M  ZZM   2 37
M  ZZI   2 124
M  ZZM   3 37
M  ZZI   3 124
M  ZZM   4 3
M  ZZI   4 121
M  ZZM   5 7
M  ZZI   5 81
M  ZZM   6 10
M  ZZI   6 192
M  ZZM   7 3
M  ZZI   7 121
M  ZZM   8 7
M  ZZI   8 81
M  ZZM   9 37
M  ZZI   9 124
M  ZZM  10 37
M  ZZI  10 125
M  ZZM  11 37
M  ZZI  11 125
M  ZZM  12 37
M  ZZI  12 125
M  ZZM  13 1
M  ZZI  13 113
M  ZZM  14 3
M  ZZI  14 121
M  ZZM  15 7
M  ZZI  15 81
M  ZZM  16 10
M  ZZI  16 191
M  ZZM  17 3
M  ZZI  17 121
M  ZZM  18 7
M  ZZI  18 81
M  ZZM  19 1
M  ZZI  19 112
M  ZZM  20 1
M  ZZI  20 112
M  ZZM  21 28
M  ZZI  21 11
M  ZZM  22 28
M  ZZI  22 11
M  ZZM  23 5
M  ZZI  23 1
M  ZZM  24 5
M  ZZI  24 1
M  ZZM  25 5
M  ZZI  25 1
M  ZZM  26 5
M  ZZI  26 1
M  ZZM  27 28
M  ZZI  27 11
M  ZZM  28 5
M  ZZI  28 1
M  ZZM  29 5
M  ZZI  29 1
M  ZZM  30 5
M  ZZI  30 1
M  ZZM  31 5
M  ZZI  31 1
M  END
> <IX>
1

> <NAME>
Cereblon_5TRF_7.pdb

> <Score>
-14.247751

> <Natom>
31

> <Nflex>
1

> <Hbond>
-2.699785

> <Hphob>
-3.704643

> <VwInt>
-27.008163

> <Dsolv>
17.252725

> <SolEl>
7.613774

> <Eintl>
5.847242

> <RecConf>
ND

> <projPath>
Cereblon_maps/

> <NAME_>
Cereblon_5TRF_7.pdb

$$$$
