Cereblon_5J8O_16.pdb
  MOLSOFT 04032206253D

 29 31  0  0  1  0  0  0  0  0999 V2000
   79.0044   42.4892   42.6723 C   0  0  0  0  0  0  0  0  0  0  0  0
   78.1849   42.1953   41.5968 C   0  0  0  0  0  0  0  0  0  0  0  0
   77.2679   41.0770   41.4108 C   0  0  0  0  0  0  0  0  0  0  0  0
   77.0886   40.2156   42.2581 O   0  0  0  0  0  0  0  0  0  0  0  0
   76.7267   41.2198   40.1463 N   0  0  0  0  0  0  0  0  0  0  0  0
   77.2228   42.3471   39.5235 C   0  0  0  0  0  0  0  0  0  0  0  0
   76.9873   42.7665   38.3977 O   0  0  0  0  0  0  0  0  0  0  0  0
   78.1575   42.9585   40.4687 C   0  0  0  0  0  0  0  0  0  0  0  0
   78.9565   44.0747   40.3270 C   0  0  0  0  0  0  0  0  0  0  0  0
   79.7986   44.3846   41.3892 C   0  0  0  0  0  0  0  0  0  0  0  0
   79.8235   43.6047   42.5461 C   0  0  0  0  0  0  0  0  0  0  0  0
   75.7186   40.3651   39.5130 C   0  0  2  0  0  0  0  0  0  0  0  0
   74.3386   40.9333   39.8022 C   0  0  0  0  0  0  0  0  0  0  0  0
   74.1515   42.1194   40.0170 O   0  0  0  0  0  0  0  0  0  0  0  0
   73.2882   40.0516   39.7262 N   0  0  0  0  0  0  0  0  0  0  0  0
   73.3265   38.7058   39.4547 C   0  0  0  0  0  0  0  0  0  0  0  0
   72.3110   38.0321   39.3977 O   0  0  0  0  0  0  0  0  0  0  0  0
   74.6912   38.1246   39.1772 C   0  0  0  0  0  0  0  0  0  0  0  0
   75.7730   38.8946   39.9142 C   0  0  0  0  0  0  0  0  0  0  0  0
   79.0171   41.8726   43.5668 H   0  0  0  0  0  0  0  0  0  0  0  0
   78.9265   44.6764   39.4264 H   0  0  0  0  0  0  0  0  0  0  0  0
   80.4477   45.2497   41.3188 H   0  0  0  0  0  0  0  0  0  0  0  0
   80.4925   43.8713   43.3594 H   0  0  0  0  0  0  0  0  0  0  0  0
   75.8575   40.4538   38.4334 H   0  0  0  0  0  0  0  0  0  0  0  0
   72.3701   40.4460   39.8890 H   0  0  0  0  0  0  0  0  0  0  0  0
   74.6975   37.0789   39.5012 H   0  0  0  0  0  0  0  0  0  0  0  0
   74.8516   38.1468   38.0948 H   0  0  0  0  0  0  0  0  0  0  0  0
   75.6096   38.7752   40.9889 H   0  0  0  0  0  0  0  0  0  0  0  0
   76.7588   38.4732   39.6914 H   0  0  0  0  0  0  0  0  0  0  0  0
  1 20  1  0  0  0  0
  1  2  1  0  0  0  0
  1 11  2  0  0  0  0
  2  3  1  0  0  0  0
  2  8  2  0  0  0  0
  3  4  2  0  0  0  0
  3  5  1  0  0  0  0
  5  6  1  0  0  0  0
 12  5  1  0  0  0  0
  6  7  2  0  0  0  0
  6  8  1  0  0  0  0
  8  9  1  0  0  0  0
  9 21  1  0  0  0  0
  9 10  2  0  0  0  0
 10 22  1  0  0  0  0
 10 11  1  0  0  0  0
 11 23  1  0  0  0  0
 12 24  1  0  0  0  0
 12 13  1  0  0  0  0
 12 19  1  0  0  0  0
 13 14  2  0  0  0  0
 13 15  1  0  0  0  0
 15 25  1  0  0  0  0
 15 16  1  0  0  0  0
 16 17  2  0  0  0  0
 16 18  1  0  0  0  0
 18 26  1  0  0  0  0
 18 27  1  0  0  0  0
 18 19  1  0  0  0  0
 19 28  1  0  0  0  0
 19 29  1  0  0  0  0
M  ZZC   1 c1
M  ZZC   2 c2
M  ZZC   3 c3
M  ZZC   4 o1
M  ZZC   5 n1
M  ZZC   6 c4
M  ZZC   7 o2
M  ZZC   8 c5
M  ZZC   9 c6
M  ZZC  10 c7
M  ZZC  11 c8
M  ZZC  12 c9
M  ZZC  13 c10
M  ZZC  14 o3
M  ZZC  15 n2
M  ZZC  16 c11
M  ZZC  17 o4
M  ZZC  18 c12
M  ZZC  19 c13
M  ZZC  20 h11
M  ZZC  21 h61
M  ZZC  22 h71
M  ZZC  23 h81
M  ZZC  24 h91
M  ZZC  25 h21
M  ZZC  26 h121
M  ZZC  27 h122
M  ZZC  28 h131
M  ZZC  29 h132
M  ZZM   1 37
M  ZZI   1 125
M  ZZM   2 37
M  ZZI   2 124
M  ZZM   3 3
M  ZZI   3 121
M  ZZM   4 7
M  ZZI   4 81
M  ZZM   5 10
M  ZZI   5 192
M  ZZM   6 3
M  ZZI   6 121
M  ZZM   7 7
M  ZZI   7 81
M  ZZM   8 37
M  ZZI   8 124
M  ZZM   9 37
M  ZZI   9 125
M  ZZM  10 37
M  ZZI  10 125
M  ZZM  11 37
M  ZZI  11 125
M  ZZM  12 1
M  ZZI  12 113
M  ZZM  13 3
M  ZZI  13 121
M  ZZM  14 7
M  ZZI  14 81
M  ZZM  15 10
M  ZZI  15 191
M  ZZM  16 3
M  ZZI  16 121
M  ZZM  17 7
M  ZZI  17 81
M  ZZM  18 1
M  ZZI  18 112
M  ZZM  19 1
M  ZZI  19 112
M  ZZM  20 5
M  ZZI  20 1
M  ZZM  21 5
M  ZZI  21 1
M  ZZM  22 5
M  ZZI  22 1
M  ZZM  23 5
M  ZZI  23 1
M  ZZM  24 5
M  ZZI  24 1
M  ZZM  25 28
M  ZZI  25 11
M  ZZM  26 5
M  ZZI  26 1
M  ZZM  27 5
M  ZZI  27 1
M  ZZM  28 5
M  ZZI  28 1
M  ZZM  29 5
M  ZZI  29 1
M  END
> <IX>
1

> <NAME>
Cereblon_5J8O_16.pdb

> <Score>
-19.406636

> <Natom>
29

> <Nflex>
1

> <Hbond>
-3.366055

> <Hphob>
-3.564334

> <VwInt>
-22.707003

> <Dsolv>
12.002846

> <SolEl>
5.627235

> <Eintl>
1.480799

> <RecConf>
ND

> <projPath>
Cereblon_maps/

> <NAME_>
Cereblon_5J8O_16.pdb

$$$$
