Cereblon_5VBP_21.pdb
  MOLSOFT 04032206273D

 29 31  0  0  1  0  0  0  0  0999 V2000
   79.0069   42.4939   42.6712 C   0  0  0  0  0  0  0  0  0  0  0  0
   78.1870   42.1984   41.5964 C   0  0  0  0  0  0  0  0  0  0  0  0
   77.2689   41.0804   41.4124 C   0  0  0  0  0  0  0  0  0  0  0  0
   77.0886   40.2211   42.2615 O   0  0  0  0  0  0  0  0  0  0  0  0
   76.7286   41.2211   40.1473 N   0  0  0  0  0  0  0  0  0  0  0  0
   77.2239   42.3481   39.5233 C   0  0  0  0  0  0  0  0  0  0  0  0
   76.9876   42.7651   38.3968 O   0  0  0  0  0  0  0  0  0  0  0  0
   78.1594   42.9602   40.4672 C   0  0  0  0  0  0  0  0  0  0  0  0
   78.9591   44.0756   40.3232 C   0  0  0  0  0  0  0  0  0  0  0  0
   79.8018   44.3863   41.3845 C   0  0  0  0  0  0  0  0  0  0  0  0
   79.8264   43.6090   42.5429 C   0  0  0  0  0  0  0  0  0  0  0  0
   75.7207   40.3652   39.5151 C   0  0  2  0  0  0  0  0  0  0  0  0
   74.3402   40.9330   39.8041 C   0  0  0  0  0  0  0  0  0  0  0  0
   74.1528   42.1194   40.0172 O   0  0  0  0  0  0  0  0  0  0  0  0
   73.2904   40.0504   39.7294 N   0  0  0  0  0  0  0  0  0  0  0  0
   73.3295   38.7045   39.4588 C   0  0  0  0  0  0  0  0  0  0  0  0
   72.3143   38.0301   39.4026 O   0  0  0  0  0  0  0  0  0  0  0  0
   74.6946   38.1240   39.1818 C   0  0  0  0  0  0  0  0  0  0  0  0
   75.7765   38.8951   39.9175 C   0  0  0  0  0  0  0  0  0  0  0  0
   79.0190   41.8799   43.5674 H   0  0  0  0  0  0  0  0  0  0  0  0
   78.9277   44.6761   39.4219 H   0  0  0  0  0  0  0  0  0  0  0  0
   80.4509   45.2514   41.3131 H   0  0  0  0  0  0  0  0  0  0  0  0
   80.4952   43.8776   43.3557 H   0  0  0  0  0  0  0  0  0  0  0  0
   75.8597   40.4527   38.4355 H   0  0  0  0  0  0  0  0  0  0  0  0
   72.3718   40.4437   39.8925 H   0  0  0  0  0  0  0  0  0  0  0  0
   74.7025   37.0784   39.5060 H   0  0  0  0  0  0  0  0  0  0  0  0
   74.8546   38.1450   38.0994 H   0  0  0  0  0  0  0  0  0  0  0  0
   75.6147   38.7761   40.9924 H   0  0  0  0  0  0  0  0  0  0  0  0
   76.7621   38.4741   39.6937 H   0  0  0  0  0  0  0  0  0  0  0  0
  1 20  1  0  0  0  0
  1  2  1  0  0  0  0
  1 11  2  0  0  0  0
  2  3  1  0  0  0  0
  2  8  2  0  0  0  0
  3  4  2  0  0  0  0
  3  5  1  0  0  0  0
  5  6  1  0  0  0  0
 12  5  1  0  0  0  0
  6  7  2  0  0  0  0
  6  8  1  0  0  0  0
  8  9  1  0  0  0  0
  9 21  1  0  0  0  0
  9 10  2  0  0  0  0
 10 22  1  0  0  0  0
 10 11  1  0  0  0  0
 11 23  1  0  0  0  0
 12 24  1  0  0  0  0
 12 13  1  0  0  0  0
 12 19  1  0  0  0  0
 13 14  2  0  0  0  0
 13 15  1  0  0  0  0
 15 25  1  0  0  0  0
 15 16  1  0  0  0  0
 16 17  2  0  0  0  0
 16 18  1  0  0  0  0
 18 26  1  0  0  0  0
 18 27  1  0  0  0  0
 18 19  1  0  0  0  0
 19 28  1  0  0  0  0
 19 29  1  0  0  0  0
M  ZZC   1 c1
M  ZZC   2 c2
M  ZZC   3 c3
M  ZZC   4 o1
M  ZZC   5 n1
M  ZZC   6 c4
M  ZZC   7 o2
M  ZZC   8 c5
M  ZZC   9 c6
M  ZZC  10 c7
M  ZZC  11 c8
M  ZZC  12 c9
M  ZZC  13 c10
M  ZZC  14 o3
M  ZZC  15 n2
M  ZZC  16 c11
M  ZZC  17 o4
M  ZZC  18 c12
M  ZZC  19 c13
M  ZZC  20 h11
M  ZZC  21 h61
M  ZZC  22 h71
M  ZZC  23 h81
M  ZZC  24 h91
M  ZZC  25 h21
M  ZZC  26 h121
M  ZZC  27 h122
M  ZZC  28 h131
M  ZZC  29 h132
M  ZZM   1 37
M  ZZI   1 125
M  ZZM   2 37
M  ZZI   2 124
M  ZZM   3 3
M  ZZI   3 121
M  ZZM   4 7
M  ZZI   4 81
M  ZZM   5 10
M  ZZI   5 192
M  ZZM   6 3
M  ZZI   6 121
M  ZZM   7 7
M  ZZI   7 81
M  ZZM   8 37
M  ZZI   8 124
M  ZZM   9 37
M  ZZI   9 125
M  ZZM  10 37
M  ZZI  10 125
M  ZZM  11 37
M  ZZI  11 125
M  ZZM  12 1
M  ZZI  12 113
M  ZZM  13 3
M  ZZI  13 121
M  ZZM  14 7
M  ZZI  14 81
M  ZZM  15 10
M  ZZI  15 191
M  ZZM  16 3
M  ZZI  16 121
M  ZZM  17 7
M  ZZI  17 81
M  ZZM  18 1
M  ZZI  18 112
M  ZZM  19 1
M  ZZI  19 112
M  ZZM  20 5
M  ZZI  20 1
M  ZZM  21 5
M  ZZI  21 1
M  ZZM  22 5
M  ZZI  22 1
M  ZZM  23 5
M  ZZI  23 1
M  ZZM  24 5
M  ZZI  24 1
M  ZZM  25 28
M  ZZI  25 11
M  ZZM  26 5
M  ZZI  26 1
M  ZZM  27 5
M  ZZI  27 1
M  ZZM  28 5
M  ZZI  28 1
M  ZZM  29 5
M  ZZI  29 1
M  END
> <IX>
1

> <NAME>
Cereblon_5VBP_21.pdb

> <Score>
-19.408479

> <Natom>
29

> <Nflex>
1

> <Hbond>
-3.368359

> <Hphob>
-3.513223

> <VwInt>
-22.702032

> <Dsolv>
11.978228

> <SolEl>
5.601245

> <Eintl>
1.481449

> <RecConf>
ND

> <projPath>
Cereblon_maps/

> <NAME_>
Cereblon_5VBP_21.pdb

$$$$
