Cereblon_5L2S_3.pdb
  MOLSOFT 04032206253D

 31 33  0  0  1  0  0  0  0  0999 V2000
   78.7152   41.7048   43.8999 N   0  0  0  0  0  0  0  0  0  0  0  0
   78.7923   42.4820   42.7336 C   0  0  0  0  0  0  0  0  0  0  0  0
   78.0725   42.1669   41.5938 C   0  0  0  0  0  0  0  0  0  0  0  0
   77.1650   41.0496   41.3665 C   0  0  0  0  0  0  0  0  0  0  0  0
   76.9562   40.1772   42.1965 O   0  0  0  0  0  0  0  0  0  0  0  0
   76.6652   41.2049   40.0891 N   0  0  0  0  0  0  0  0  0  0  0  0
   77.2023   42.3218   39.4818 C   0  0  0  0  0  0  0  0  0  0  0  0
   77.0126   42.7389   38.3466 O   0  0  0  0  0  0  0  0  0  0  0  0
   78.1128   42.9196   40.4598 C   0  0  0  0  0  0  0  0  0  0  0  0
   78.9355   44.0222   40.3519 C   0  0  0  0  0  0  0  0  0  0  0  0
   79.7191   44.3290   41.4565 C   0  0  0  0  0  0  0  0  0  0  0  0
   79.6488   43.5739   42.6291 C   0  0  0  0  0  0  0  0  0  0  0  0
   75.6470   40.3778   39.4383 C   0  0  2  0  0  0  0  0  0  0  0  0
   74.2785   40.9755   39.7167 C   0  0  0  0  0  0  0  0  0  0  0  0
   74.1207   42.1593   39.9663 O   0  0  0  0  0  0  0  0  0  0  0  0
   73.2082   40.1244   39.5928 N   0  0  0  0  0  0  0  0  0  0  0  0
   73.2191   38.7843   39.2907 C   0  0  0  0  0  0  0  0  0  0  0  0
   72.1867   38.1442   39.1739 O   0  0  0  0  0  0  0  0  0  0  0  0
   74.5774   38.1642   39.0605 C   0  0  0  0  0  0  0  0  0  0  0  0
   75.6579   38.9038   39.8311 C   0  0  0  0  0  0  0  0  0  0  0  0
   78.9875   42.1084   44.7951 H   0  0  0  0  0  0  0  0  0  0  0  0
   78.0582   40.9226   43.9130 H   0  0  0  0  0  0  0  0  0  0  0  0
   78.9653   44.6163   39.4463 H   0  0  0  0  0  0  0  0  0  0  0  0
   80.3903   45.1795   41.4132 H   0  0  0  0  0  0  0  0  0  0  0  0
   80.2712   43.8497   43.4749 H   0  0  0  0  0  0  0  0  0  0  0  0
   75.8024   40.4721   38.3622 H   0  0  0  0  0  0  0  0  0  0  0  0
   72.2964   40.5399   39.7381 H   0  0  0  0  0  0  0  0  0  0  0  0
   74.5438   37.1187   39.3832 H   0  0  0  0  0  0  0  0  0  0  0  0
   74.7790   38.1800   37.9850 H   0  0  0  0  0  0  0  0  0  0  0  0
   76.6382   38.4584   39.6335 H   0  0  0  0  0  0  0  0  0  0  0  0
   75.4645   38.7774   40.9001 H   0  0  0  0  0  0  0  0  0  0  0  0
  1  2  1  0  0  0  0
  1 21  1  0  0  0  0
  1 22  1  0  0  0  0
  2  3  1  0  0  0  0
  2 12  2  0  0  0  0
  3  9  2  0  0  0  0
  3  4  1  0  0  0  0
  4  5  2  0  0  0  0
  4  6  1  0  0  0  0
  6  7  1  0  0  0  0
 13  6  1  0  0  0  0
  7  8  2  0  0  0  0
  7  9  1  0  0  0  0
  9 10  1  0  0  0  0
 10 23  1  0  0  0  0
 10 11  2  0  0  0  0
 11 12  1  0  0  0  0
 11 24  1  0  0  0  0
 12 25  1  0  0  0  0
 13 26  1  0  0  0  0
 13 14  1  0  0  0  0
 13 20  1  0  0  0  0
 14 15  2  0  0  0  0
 14 16  1  0  0  0  0
 16 27  1  0  0  0  0
 16 17  1  0  0  0  0
 17 18  2  0  0  0  0
 17 19  1  0  0  0  0
 19 28  1  0  0  0  0
 19 29  1  0  0  0  0
 19 20  1  0  0  0  0
 20 30  1  0  0  0  0
 20 31  1  0  0  0  0
M  ZZC   1 n1
M  ZZC   2 c1
M  ZZC   3 c2
M  ZZC   4 c3
M  ZZC   5 o1
M  ZZC   6 n2
M  ZZC   7 c4
M  ZZC   8 o2
M  ZZC   9 c5
M  ZZC  10 c6
M  ZZC  11 c7
M  ZZC  12 c8
M  ZZC  13 c9
M  ZZC  14 c10
M  ZZC  15 o3
M  ZZC  16 n3
M  ZZC  17 c11
M  ZZC  18 o4
M  ZZC  19 c12
M  ZZC  20 c13
M  ZZC  21 h11
M  ZZC  22 h12
M  ZZC  23 h61
M  ZZC  24 h71
M  ZZC  25 h81
M  ZZC  26 h91
M  ZZC  27 h31
M  ZZC  28 h121
M  ZZC  29 h122
M  ZZC  30 h131
M  ZZC  31 h132
M  ZZM   1 40
M  ZZI   1 224
M  ZZM   2 37
M  ZZI   2 124
M  ZZM   3 37
M  ZZI   3 124
M  ZZM   4 3
M  ZZI   4 121
M  ZZM   5 7
M  ZZI   5 81
M  ZZM   6 10
M  ZZI   6 192
M  ZZM   7 3
M  ZZI   7 121
M  ZZM   8 7
M  ZZI   8 81
M  ZZM   9 37
M  ZZI   9 124
M  ZZM  10 37
M  ZZI  10 125
M  ZZM  11 37
M  ZZI  11 125
M  ZZM  12 37
M  ZZI  12 125
M  ZZM  13 1
M  ZZI  13 113
M  ZZM  14 3
M  ZZI  14 121
M  ZZM  15 7
M  ZZI  15 81
M  ZZM  16 10
M  ZZI  16 191
M  ZZM  17 3
M  ZZI  17 121
M  ZZM  18 7
M  ZZI  18 81
M  ZZM  19 1
M  ZZI  19 112
M  ZZM  20 1
M  ZZI  20 112
M  ZZM  21 28
M  ZZI  21 11
M  ZZM  22 28
M  ZZI  22 11
M  ZZM  23 5
M  ZZI  23 1
M  ZZM  24 5
M  ZZI  24 1
M  ZZM  25 5
M  ZZI  25 1
M  ZZM  26 5
M  ZZI  26 1
M  ZZM  27 28
M  ZZI  27 11
M  ZZM  28 5
M  ZZI  28 1
M  ZZM  29 5
M  ZZI  29 1
M  ZZM  30 5
M  ZZI  30 1
M  ZZM  31 5
M  ZZI  31 1
M  END
> <IX>
1

> <NAME>
Cereblon_5L2S_3.pdb

> <Score>
-21.219689

> <Natom>
31

> <Nflex>
1

> <Hbond>
-4.836254

> <Hphob>
-3.527449

> <VwInt>
-24.01265

> <Dsolv>
15.146946

> <SolEl>
6.398411

> <Eintl>
2.014854

> <RecConf>
ND

> <projPath>
Cereblon_maps/

> <NAME_>
Cereblon_5L2S_3.pdb

$$$$
