Cereblon_5J8O_2.pdb
  MOLSOFT 04032206253D

 29 31  0  0  1  0  0  0  0  0999 V2000
   79.0001   42.4856   42.6732 C   0  0  0  0  0  0  0  0  0  0  0  0
   78.1817   42.1922   41.5970 C   0  0  0  0  0  0  0  0  0  0  0  0
   77.2655   41.0737   41.4094 C   0  0  0  0  0  0  0  0  0  0  0  0
   77.0866   40.2113   42.2557 O   0  0  0  0  0  0  0  0  0  0  0  0
   76.7241   41.2177   40.1452 N   0  0  0  0  0  0  0  0  0  0  0  0
   77.2214   42.3448   39.5227 C   0  0  0  0  0  0  0  0  0  0  0  0
   76.9878   42.7640   38.3964 O   0  0  0  0  0  0  0  0  0  0  0  0
   78.1550   42.9561   40.4692 C   0  0  0  0  0  0  0  0  0  0  0  0
   78.9546   44.0720   40.3284 C   0  0  0  0  0  0  0  0  0  0  0  0
   79.7957   44.3812   41.3915 C   0  0  0  0  0  0  0  0  0  0  0  0
   79.8193   43.6013   42.5484 C   0  0  0  0  0  0  0  0  0  0  0  0
   75.7154   40.3643   39.5113 C   0  0  2  0  0  0  0  0  0  0  0  0
   74.3358   40.9336   39.8008 C   0  0  0  0  0  0  0  0  0  0  0  0
   74.1497   42.1199   40.0155 O   0  0  0  0  0  0  0  0  0  0  0  0
   73.2850   40.0522   39.7256 N   0  0  0  0  0  0  0  0  0  0  0  0
   73.3220   38.7077   39.4477 C   0  0  0  0  0  0  0  0  0  0  0  0
   72.3059   38.0354   39.3833 O   0  0  0  0  0  0  0  0  0  0  0  0
   74.6869   38.1258   39.1724 C   0  0  0  0  0  0  0  0  0  0  0  0
   75.7684   38.8938   39.9120 C   0  0  0  0  0  0  0  0  0  0  0  0
   79.0088   41.8699   43.5684 H   0  0  0  0  0  0  0  0  0  0  0  0
   78.9258   44.6731   39.4273 H   0  0  0  0  0  0  0  0  0  0  0  0
   80.4444   45.2468   41.3226 H   0  0  0  0  0  0  0  0  0  0  0  0
   80.4863   43.8680   43.3634 H   0  0  0  0  0  0  0  0  0  0  0  0
   75.8556   40.4535   38.4321 H   0  0  0  0  0  0  0  0  0  0  0  0
   72.3666   40.4459   39.8887 H   0  0  0  0  0  0  0  0  0  0  0  0
   74.6916   37.0800   39.4957 H   0  0  0  0  0  0  0  0  0  0  0  0
   74.8497   38.1491   38.0905 H   0  0  0  0  0  0  0  0  0  0  0  0
   75.6036   38.7739   40.9865 H   0  0  0  0  0  0  0  0  0  0  0  0
   76.7538   38.4713   39.6901 H   0  0  0  0  0  0  0  0  0  0  0  0
  1 20  1  0  0  0  0
  1  2  1  0  0  0  0
  1 11  2  0  0  0  0
  2  3  1  0  0  0  0
  2  8  2  0  0  0  0
  3  4  2  0  0  0  0
  3  5  1  0  0  0  0
  5  6  1  0  0  0  0
 12  5  1  0  0  0  0
  6  7  2  0  0  0  0
  6  8  1  0  0  0  0
  8  9  1  0  0  0  0
  9 21  1  0  0  0  0
  9 10  2  0  0  0  0
 10 22  1  0  0  0  0
 10 11  1  0  0  0  0
 11 23  1  0  0  0  0
 12 24  1  0  0  0  0
 12 13  1  0  0  0  0
 12 19  1  0  0  0  0
 13 14  2  0  0  0  0
 13 15  1  0  0  0  0
 15 25  1  0  0  0  0
 15 16  1  0  0  0  0
 16 17  2  0  0  0  0
 16 18  1  0  0  0  0
 18 26  1  0  0  0  0
 18 27  1  0  0  0  0
 18 19  1  0  0  0  0
 19 28  1  0  0  0  0
 19 29  1  0  0  0  0
M  ZZC   1 c1
M  ZZC   2 c2
M  ZZC   3 c3
M  ZZC   4 o1
M  ZZC   5 n1
M  ZZC   6 c4
M  ZZC   7 o2
M  ZZC   8 c5
M  ZZC   9 c6
M  ZZC  10 c7
M  ZZC  11 c8
M  ZZC  12 c9
M  ZZC  13 c10
M  ZZC  14 o3
M  ZZC  15 n2
M  ZZC  16 c11
M  ZZC  17 o4
M  ZZC  18 c12
M  ZZC  19 c13
M  ZZC  20 h11
M  ZZC  21 h61
M  ZZC  22 h71
M  ZZC  23 h81
M  ZZC  24 h91
M  ZZC  25 h21
M  ZZC  26 h121
M  ZZC  27 h122
M  ZZC  28 h131
M  ZZC  29 h132
M  ZZM   1 37
M  ZZI   1 125
M  ZZM   2 37
M  ZZI   2 124
M  ZZM   3 3
M  ZZI   3 121
M  ZZM   4 7
M  ZZI   4 81
M  ZZM   5 10
M  ZZI   5 192
M  ZZM   6 3
M  ZZI   6 121
M  ZZM   7 7
M  ZZI   7 81
M  ZZM   8 37
M  ZZI   8 124
M  ZZM   9 37
M  ZZI   9 125
M  ZZM  10 37
M  ZZI  10 125
M  ZZM  11 37
M  ZZI  11 125
M  ZZM  12 1
M  ZZI  12 113
M  ZZM  13 3
M  ZZI  13 121
M  ZZM  14 7
M  ZZI  14 81
M  ZZM  15 10
M  ZZI  15 191
M  ZZM  16 3
M  ZZI  16 121
M  ZZM  17 7
M  ZZI  17 81
M  ZZM  18 1
M  ZZI  18 112
M  ZZM  19 1
M  ZZI  19 112
M  ZZM  20 5
M  ZZI  20 1
M  ZZM  21 5
M  ZZI  21 1
M  ZZM  22 5
M  ZZI  22 1
M  ZZM  23 5
M  ZZI  23 1
M  ZZM  24 5
M  ZZI  24 1
M  ZZM  25 28
M  ZZI  25 11
M  ZZM  26 5
M  ZZI  26 1
M  ZZM  27 5
M  ZZI  27 1
M  ZZM  28 5
M  ZZI  28 1
M  ZZM  29 5
M  ZZI  29 1
M  END
> <IX>
1

> <NAME>
Cereblon_5J8O_2.pdb

> <Score>
-19.340542

> <Natom>
29

> <Nflex>
1

> <Hbond>
-3.370847

> <Hphob>
-3.590169

> <VwInt>
-22.698078

> <Dsolv>
12.034883

> <SolEl>
5.715953

> <Eintl>
1.487502

> <RecConf>
ND

> <projPath>
Cereblon_maps/

> <NAME_>
Cereblon_5J8O_2.pdb

$$$$
