Cereblon_2GQG_38.pdb
  MOLSOFT 04032206203D

 31 33  0  0  1  0  0  0  0  0999 V2000
   76.8748   41.5629   40.9081 N   0  0  0  0  0  0  0  0  0  0  0  0
   76.4295   40.3126   40.4540 C   0  0  0  0  0  0  0  0  0  0  0  0
   75.3383   40.1687   39.6089 C   0  0  0  0  0  0  0  0  0  0  0  0
   74.4855   41.1842   38.9882 C   0  0  0  0  0  0  0  0  0  0  0  0
   74.5425   42.3692   39.2856 O   0  0  0  0  0  0  0  0  0  0  0  0
   73.6473   40.5109   38.1156 N   0  0  0  0  0  0  0  0  0  0  0  0
   73.8250   39.1474   38.2307 C   0  0  0  0  0  0  0  0  0  0  0  0
   73.2327   38.2361   37.6709 O   0  0  0  0  0  0  0  0  0  0  0  0
   74.9111   38.9473   39.1856 C   0  0  0  0  0  0  0  0  0  0  0  0
   75.4867   37.7689   39.6217 C   0  0  0  0  0  0  0  0  0  0  0  0
   76.5404   37.8834   40.5184 C   0  0  0  0  0  0  0  0  0  0  0  0
   76.9962   39.1347   40.9315 C   0  0  0  0  0  0  0  0  0  0  0  0
   72.6199   41.0928   37.2390 C   0  0  1  0  0  0  0  0  0  0  0  0
   71.3226   41.3115   38.0096 C   0  0  0  0  0  0  0  0  0  0  0  0
   71.0123   40.6665   39.0004 O   0  0  0  0  0  0  0  0  0  0  0  0
   70.4541   42.2301   37.4664 N   0  0  0  0  0  0  0  0  0  0  0  0
   70.6488   43.0779   36.4080 C   0  0  0  0  0  0  0  0  0  0  0  0
   69.8184   43.9240   36.1138 O   0  0  0  0  0  0  0  0  0  0  0  0
   71.9296   42.8803   35.6359 C   0  0  0  0  0  0  0  0  0  0  0  0
   73.0500   42.3766   36.5330 C   0  0  0  0  0  0  0  0  0  0  0  0
   77.8138   41.6189   41.2962 H   0  0  0  0  0  0  0  0  0  0  0  0
   76.5287   42.3915   40.4243 H   0  0  0  0  0  0  0  0  0  0  0  0
   75.1344   36.8000   39.2797 H   0  0  0  0  0  0  0  0  0  0  0  0
   77.0201   36.9871   40.8995 H   0  0  0  0  0  0  0  0  0  0  0  0
   77.8204   39.1882   41.6362 H   0  0  0  0  0  0  0  0  0  0  0  0
   72.3847   40.3413   36.4762 H   0  0  0  0  0  0  0  0  0  0  0  0
   69.5809   42.3581   37.9565 H   0  0  0  0  0  0  0  0  0  0  0  0
   71.7341   42.1804   34.8165 H   0  0  0  0  0  0  0  0  0  0  0  0
   72.2127   43.8421   35.2032 H   0  0  0  0  0  0  0  0  0  0  0  0
   73.9525   42.1990   35.9395 H   0  0  0  0  0  0  0  0  0  0  0  0
   73.3015   43.1567   37.2565 H   0  0  0  0  0  0  0  0  0  0  0  0
  1  2  1  0  0  0  0
  1 21  1  0  0  0  0
  1 22  1  0  0  0  0
  2  3  1  0  0  0  0
  2 12  2  0  0  0  0
  3  9  2  0  0  0  0
  3  4  1  0  0  0  0
  4  5  2  0  0  0  0
  4  6  1  0  0  0  0
  6  7  1  0  0  0  0
 13  6  1  0  0  0  0
  7  8  2  0  0  0  0
  7  9  1  0  0  0  0
  9 10  1  0  0  0  0
 10 23  1  0  0  0  0
 10 11  2  0  0  0  0
 11 12  1  0  0  0  0
 11 24  1  0  0  0  0
 12 25  1  0  0  0  0
 13 26  1  0  0  0  0
 13 14  1  0  0  0  0
 13 20  1  0  0  0  0
 14 15  2  0  0  0  0
 14 16  1  0  0  0  0
 16 27  1  0  0  0  0
 16 17  1  0  0  0  0
 17 18  2  0  0  0  0
 17 19  1  0  0  0  0
 19 28  1  0  0  0  0
 19 29  1  0  0  0  0
 19 20  1  0  0  0  0
 20 30  1  0  0  0  0
 20 31  1  0  0  0  0
M  ZZC   1 n1
M  ZZC   2 c1
M  ZZC   3 c2
M  ZZC   4 c3
M  ZZC   5 o1
M  ZZC   6 n2
M  ZZC   7 c4
M  ZZC   8 o2
M  ZZC   9 c5
M  ZZC  10 c6
M  ZZC  11 c7
M  ZZC  12 c8
M  ZZC  13 c9
M  ZZC  14 c10
M  ZZC  15 o3
M  ZZC  16 n3
M  ZZC  17 c11
M  ZZC  18 o4
M  ZZC  19 c12
M  ZZC  20 c13
M  ZZC  21 h11
M  ZZC  22 h12
M  ZZC  23 h61
M  ZZC  24 h71
M  ZZC  25 h81
M  ZZC  26 h91
M  ZZC  27 h31
M  ZZC  28 h121
M  ZZC  29 h122
M  ZZC  30 h131
M  ZZC  31 h132
M  ZZM   1 40
M  ZZI   1 224
M  ZZM   2 37
M  ZZI   2 124
M  ZZM   3 37
M  ZZI   3 124
M  ZZM   4 3
M  ZZI   4 121
M  ZZM   5 7
M  ZZI   5 81
M  ZZM   6 10
M  ZZI   6 192
M  ZZM   7 3
M  ZZI   7 121
M  ZZM   8 7
M  ZZI   8 81
M  ZZM   9 37
M  ZZI   9 124
M  ZZM  10 37
M  ZZI  10 125
M  ZZM  11 37
M  ZZI  11 125
M  ZZM  12 37
M  ZZI  12 125
M  ZZM  13 1
M  ZZI  13 113
M  ZZM  14 3
M  ZZI  14 121
M  ZZM  15 7
M  ZZI  15 81
M  ZZM  16 10
M  ZZI  16 191
M  ZZM  17 3
M  ZZI  17 121
M  ZZM  18 7
M  ZZI  18 81
M  ZZM  19 1
M  ZZI  19 112
M  ZZM  20 1
M  ZZI  20 112
M  ZZM  21 28
M  ZZI  21 11
M  ZZM  22 28
M  ZZI  22 11
M  ZZM  23 5
M  ZZI  23 1
M  ZZM  24 5
M  ZZI  24 1
M  ZZM  25 5
M  ZZI  25 1
M  ZZM  26 5
M  ZZI  26 1
M  ZZM  27 28
M  ZZI  27 11
M  ZZM  28 5
M  ZZI  28 1
M  ZZM  29 5
M  ZZI  29 1
M  ZZM  30 5
M  ZZI  30 1
M  ZZM  31 5
M  ZZI  31 1
M  END
> <IX>
1

> <NAME>
Cereblon_2GQG_38.pdb

> <Score>
-19.302648

> <Natom>
31

> <Nflex>
1

> <Hbond>
-4.914583

> <Hphob>
-3.474601

> <VwInt>
-24.115866

> <Dsolv>
15.903464

> <SolEl>
9.438096

> <Eintl>
1.363924

> <RecConf>
ND

> <projPath>
Cereblon_maps/

> <NAME_>
Cereblon_2GQG_38.pdb

$$$$
