Cereblon_3IKA_2.pdb
  MOLSOFT 04032206213D

 30 32  0  0  1  0  0  0  0  0999 V2000
   77.6047   41.0880   42.0860 C   0  0  0  0  0  0  0  0  0  0  0  0
   76.9703   41.1495   40.8562 C   0  0  0  0  0  0  0  0  0  0  0  0
   77.2656   42.1537   39.9739 C   0  0  0  0  0  0  0  0  0  0  0  0
   76.4139   41.9861   38.7907 C   0  0  0  0  0  0  0  0  0  0  0  0
   76.4491   42.6994   37.7978 O   0  0  0  0  0  0  0  0  0  0  0  0
   75.5750   40.9181   39.0527 N   0  0  0  0  0  0  0  0  0  0  0  0
   74.2690   40.7552   38.3943 C   0  0  2  0  0  0  0  0  0  0  0  0
   73.2438   41.5318   39.2037 C   0  0  0  0  0  0  0  0  0  0  0  0
   73.5616   42.3836   40.0172 O   0  0  0  0  0  0  0  0  0  0  0  0
   71.9263   41.2510   38.9330 N   0  0  0  0  0  0  0  0  0  0  0  0
   71.4198   40.2396   38.1531 C   0  0  0  0  0  0  0  0  0  0  0  0
   70.2181   40.1249   37.9604 O   0  0  0  0  0  0  0  0  0  0  0  0
   72.4428   39.3184   37.5201 C   0  0  0  0  0  0  0  0  0  0  0  0
   73.7671   39.3207   38.2756 C   0  0  0  0  0  0  0  0  0  0  0  0
   75.9234   40.2576   40.2963 C   0  0  0  0  0  0  0  0  0  0  0  0
   78.1921   43.1465   40.2452 C   0  0  0  0  0  0  0  0  0  0  0  0
   78.8419   43.0804   41.4710 C   0  0  0  0  0  0  0  0  0  0  0  0
   78.5416   42.0695   42.3840 C   0  0  0  0  0  0  0  0  0  0  0  0
   77.3734   40.3075   42.8040 H   0  0  0  0  0  0  0  0  0  0  0  0
   74.3192   41.2388   37.4113 H   0  0  0  0  0  0  0  0  0  0  0  0
   71.2506   41.8584   39.3793 H   0  0  0  0  0  0  0  0  0  0  0  0
   72.0303   38.3047   37.5007 H   0  0  0  0  0  0  0  0  0  0  0  0
   72.5921   39.6416   36.4840 H   0  0  0  0  0  0  0  0  0  0  0  0
   73.6222   38.8804   39.2691 H   0  0  0  0  0  0  0  0  0  0  0  0
   74.4942   38.6900   37.7568 H   0  0  0  0  0  0  0  0  0  0  0  0
   76.3029   39.2531   40.0800 H   0  0  0  0  0  0  0  0  0  0  0  0
   75.0497   40.2164   40.9423 H   0  0  0  0  0  0  0  0  0  0  0  0
   78.3998   43.9415   39.5367 H   0  0  0  0  0  0  0  0  0  0  0  0
   79.5743   43.8381   41.7315 H   0  0  0  0  0  0  0  0  0  0  0  0
   79.0485   42.0482   43.3437 H   0  0  0  0  0  0  0  0  0  0  0  0
  1 19  1  0  0  0  0
  1 18  2  0  0  0  0
  1  2  1  0  0  0  0
  2  3  2  0  0  0  0
  2 15  1  0  0  0  0
  3 16  1  0  0  0  0
  3  4  1  0  0  0  0
  4  6  1  0  0  0  0
  4  5  2  0  0  0  0
  6 15  1  0  0  0  0
  7  6  1  0  0  0  0
  7 20  1  0  0  0  0
  7  8  1  0  0  0  0
  7 14  1  0  0  0  0
  8  9  2  0  0  0  0
  8 10  1  0  0  0  0
 10 21  1  0  0  0  0
 10 11  1  0  0  0  0
 11 12  2  0  0  0  0
 11 13  1  0  0  0  0
 13 22  1  0  0  0  0
 13 23  1  0  0  0  0
 13 14  1  0  0  0  0
 14 24  1  0  0  0  0
 14 25  1  0  0  0  0
 15 26  1  0  0  0  0
 15 27  1  0  0  0  0
 16 17  2  0  0  0  0
 16 28  1  0  0  0  0
 17 18  1  0  0  0  0
 17 29  1  0  0  0  0
 18 30  1  0  0  0  0
M  ZZC   1 c1
M  ZZC   2 c2
M  ZZC   3 c3
M  ZZC   4 c4
M  ZZC   5 o1
M  ZZC   6 n1
M  ZZC   7 c5
M  ZZC   8 c6
M  ZZC   9 o2
M  ZZC  10 n2
M  ZZC  11 c7
M  ZZC  12 o3
M  ZZC  13 c8
M  ZZC  14 c9
M  ZZC  15 c10
M  ZZC  16 c11
M  ZZC  17 c12
M  ZZC  18 c13
M  ZZC  19 h11
M  ZZC  20 h51
M  ZZC  21 h21
M  ZZC  22 h81
M  ZZC  23 h82
M  ZZC  24 h91
M  ZZC  25 h92
M  ZZC  26 h101
M  ZZC  27 h102
M  ZZC  28 h111
M  ZZC  29 h121
M  ZZC  30 h131
M  ZZM   1 37
M  ZZI   1 125
M  ZZM   2 37
M  ZZI   2 124
M  ZZM   3 37
M  ZZI   3 124
M  ZZM   4 3
M  ZZI   4 121
M  ZZM   5 7
M  ZZI   5 81
M  ZZM   6 10
M  ZZI   6 192
M  ZZM   7 1
M  ZZI   7 113
M  ZZM   8 3
M  ZZI   8 121
M  ZZM   9 7
M  ZZI   9 81
M  ZZM  10 10
M  ZZI  10 191
M  ZZM  11 3
M  ZZI  11 121
M  ZZM  12 7
M  ZZI  12 81
M  ZZM  13 1
M  ZZI  13 112
M  ZZM  14 1
M  ZZI  14 112
M  ZZM  15 1
M  ZZI  15 112
M  ZZM  16 37
M  ZZI  16 125
M  ZZM  17 37
M  ZZI  17 125
M  ZZM  18 37
M  ZZI  18 125
M  ZZM  19 5
M  ZZI  19 1
M  ZZM  20 5
M  ZZI  20 1
M  ZZM  21 28
M  ZZI  21 11
M  ZZM  22 5
M  ZZI  22 1
M  ZZM  23 5
M  ZZI  23 1
M  ZZM  24 5
M  ZZI  24 1
M  ZZM  25 5
M  ZZI  25 1
M  ZZM  26 5
M  ZZI  26 1
M  ZZM  27 5
M  ZZI  27 1
M  ZZM  28 5
M  ZZI  28 1
M  ZZM  29 5
M  ZZI  29 1
M  ZZM  30 5
M  ZZI  30 1
M  END
> <IX>
1

> <NAME>
Cereblon_3IKA_2.pdb

> <Score>
-15.671812

> <Natom>
30

> <Nflex>
1

> <Hbond>
-4.254488

> <Hphob>
-3.671825

> <VwInt>
-19.361493

> <Dsolv>
13.925805

> <SolEl>
5.209967

> <Eintl>
4.05121

> <RecConf>
ND

> <projPath>
Cereblon_maps/

> <NAME_>
Cereblon_3IKA_2.pdb

$$$$
