Cereblon_4LY1_1.pdb
  MOLSOFT 04032206223D

 29 31  0  0  1  0  0  0  0  0999 V2000
   79.0041   42.4903   42.6728 C   0  0  0  0  0  0  0  0  0  0  0  0
   78.1851   42.1954   41.5972 C   0  0  0  0  0  0  0  0  0  0  0  0
   77.2679   41.0773   41.4118 C   0  0  0  0  0  0  0  0  0  0  0  0
   77.0886   40.2158   42.2589 O   0  0  0  0  0  0  0  0  0  0  0  0
   76.7268   41.2197   40.1471 N   0  0  0  0  0  0  0  0  0  0  0  0
   77.2230   42.3469   39.5241 C   0  0  0  0  0  0  0  0  0  0  0  0
   76.9874   42.7650   38.3978 O   0  0  0  0  0  0  0  0  0  0  0  0
   78.1578   42.9584   40.4687 C   0  0  0  0  0  0  0  0  0  0  0  0
   78.9572   44.0742   40.3260 C   0  0  0  0  0  0  0  0  0  0  0  0
   79.7993   44.3842   41.3883 C   0  0  0  0  0  0  0  0  0  0  0  0
   79.8233   43.6057   42.5458 C   0  0  0  0  0  0  0  0  0  0  0  0
   75.7192   40.3647   39.5139 C   0  0  2  0  0  0  0  0  0  0  0  0
   74.3389   40.9336   39.8017 C   0  0  0  0  0  0  0  0  0  0  0  0
   74.1513   42.1196   40.0170 O   0  0  0  0  0  0  0  0  0  0  0  0
   73.2886   40.0520   39.7236 N   0  0  0  0  0  0  0  0  0  0  0  0
   73.3271   38.7056   39.4549 C   0  0  0  0  0  0  0  0  0  0  0  0
   72.3115   38.0318   39.3994 O   0  0  0  0  0  0  0  0  0  0  0  0
   74.6920   38.1243   39.1786 C   0  0  0  0  0  0  0  0  0  0  0  0
   75.7735   38.8945   39.9160 C   0  0  0  0  0  0  0  0  0  0  0  0
   79.0151   41.8755   43.5684 H   0  0  0  0  0  0  0  0  0  0  0  0
   78.9268   44.6749   39.4252 H   0  0  0  0  0  0  0  0  0  0  0  0
   80.4482   45.2492   41.3183 H   0  0  0  0  0  0  0  0  0  0  0  0
   80.4912   43.8742   43.3597 H   0  0  0  0  0  0  0  0  0  0  0  0
   75.8592   40.4518   38.4344 H   0  0  0  0  0  0  0  0  0  0  0  0
   72.3700   40.4456   39.8859 H   0  0  0  0  0  0  0  0  0  0  0  0
   74.6985   37.0788   39.5031 H   0  0  0  0  0  0  0  0  0  0  0  0
   74.8538   38.1464   38.0965 H   0  0  0  0  0  0  0  0  0  0  0  0
   76.7595   38.4732   39.6934 H   0  0  0  0  0  0  0  0  0  0  0  0
   75.6106   38.7759   40.9908 H   0  0  0  0  0  0  0  0  0  0  0  0
  1 20  1  0  0  0  0
  1  2  1  0  0  0  0
  1 11  2  0  0  0  0
  2  3  1  0  0  0  0
  2  8  2  0  0  0  0
  3  4  2  0  0  0  0
  3  5  1  0  0  0  0
  5  6  1  0  0  0  0
 12  5  1  0  0  0  0
  6  7  2  0  0  0  0
  6  8  1  0  0  0  0
  8  9  1  0  0  0  0
  9 21  1  0  0  0  0
  9 10  2  0  0  0  0
 10 22  1  0  0  0  0
 10 11  1  0  0  0  0
 11 23  1  0  0  0  0
 12 24  1  0  0  0  0
 12 13  1  0  0  0  0
 12 19  1  0  0  0  0
 13 14  2  0  0  0  0
 13 15  1  0  0  0  0
 15 25  1  0  0  0  0
 15 16  1  0  0  0  0
 16 17  2  0  0  0  0
 16 18  1  0  0  0  0
 18 26  1  0  0  0  0
 18 27  1  0  0  0  0
 18 19  1  0  0  0  0
 19 28  1  0  0  0  0
 19 29  1  0  0  0  0
M  ZZC   1 c1
M  ZZC   2 c2
M  ZZC   3 c3
M  ZZC   4 o1
M  ZZC   5 n1
M  ZZC   6 c4
M  ZZC   7 o2
M  ZZC   8 c5
M  ZZC   9 c6
M  ZZC  10 c7
M  ZZC  11 c8
M  ZZC  12 c9
M  ZZC  13 c10
M  ZZC  14 o3
M  ZZC  15 n2
M  ZZC  16 c11
M  ZZC  17 o4
M  ZZC  18 c12
M  ZZC  19 c13
M  ZZC  20 h11
M  ZZC  21 h61
M  ZZC  22 h71
M  ZZC  23 h81
M  ZZC  24 h91
M  ZZC  25 h21
M  ZZC  26 h121
M  ZZC  27 h122
M  ZZC  28 h131
M  ZZC  29 h132
M  ZZM   1 37
M  ZZI   1 125
M  ZZM   2 37
M  ZZI   2 124
M  ZZM   3 3
M  ZZI   3 121
M  ZZM   4 7
M  ZZI   4 81
M  ZZM   5 10
M  ZZI   5 192
M  ZZM   6 3
M  ZZI   6 121
M  ZZM   7 7
M  ZZI   7 81
M  ZZM   8 37
M  ZZI   8 124
M  ZZM   9 37
M  ZZI   9 125
M  ZZM  10 37
M  ZZI  10 125
M  ZZM  11 37
M  ZZI  11 125
M  ZZM  12 1
M  ZZI  12 113
M  ZZM  13 3
M  ZZI  13 121
M  ZZM  14 7
M  ZZI  14 81
M  ZZM  15 10
M  ZZI  15 191
M  ZZM  16 3
M  ZZI  16 121
M  ZZM  17 7
M  ZZI  17 81
M  ZZM  18 1
M  ZZI  18 112
M  ZZM  19 1
M  ZZI  19 112
M  ZZM  20 5
M  ZZI  20 1
M  ZZM  21 5
M  ZZI  21 1
M  ZZM  22 5
M  ZZI  22 1
M  ZZM  23 5
M  ZZI  23 1
M  ZZM  24 5
M  ZZI  24 1
M  ZZM  25 28
M  ZZI  25 11
M  ZZM  26 5
M  ZZI  26 1
M  ZZM  27 5
M  ZZI  27 1
M  ZZM  28 5
M  ZZI  28 1
M  ZZM  29 5
M  ZZI  29 1
M  END
> <IX>
1

> <NAME>
Cereblon_4LY1_1.pdb

> <Score>
-19.365761

> <Natom>
29

> <Nflex>
1

> <Hbond>
-3.363125

> <Hphob>
-3.494208

> <VwInt>
-22.71915

> <Dsolv>
11.981235

> <SolEl>
5.641437

> <Eintl>
1.4899

> <RecConf>
ND

> <projPath>
Cereblon_maps/

> <NAME_>
Cereblon_4LY1_1.pdb

$$$$
