Cereblon_3QQU_3.pdb
  MOLSOFT 04032206223D

 31 33  0  0  1  0  0  0  0  0999 V2000
   78.8117   41.6770   43.8188 N   0  0  0  0  0  0  0  0  0  0  0  0
   78.9061   42.4215   42.6325 C   0  0  0  0  0  0  0  0  0  0  0  0
   78.0998   42.1568   41.5382 C   0  0  0  0  0  0  0  0  0  0  0  0
   77.1786   41.0464   41.3306 C   0  0  0  0  0  0  0  0  0  0  0  0
   76.9977   40.1635   42.1560 O   0  0  0  0  0  0  0  0  0  0  0  0
   76.6449   41.2107   40.0678 N   0  0  0  0  0  0  0  0  0  0  0  0
   77.1661   42.3315   39.4544 C   0  0  0  0  0  0  0  0  0  0  0  0
   76.9533   42.7543   38.3255 O   0  0  0  0  0  0  0  0  0  0  0  0
   78.0971   42.9266   40.4145 C   0  0  0  0  0  0  0  0  0  0  0  0
   78.9082   44.0364   40.2944 C   0  0  0  0  0  0  0  0  0  0  0  0
   79.7238   44.3360   41.3796 C   0  0  0  0  0  0  0  0  0  0  0  0
   79.7112   43.5525   42.5350 C   0  0  0  0  0  0  0  0  0  0  0  0
   75.6247   40.3749   39.4309 C   0  0  2  0  0  0  0  0  0  0  0  0
   74.2535   40.9536   39.7363 C   0  0  0  0  0  0  0  0  0  0  0  0
   74.0829   42.1336   39.9939 O   0  0  0  0  0  0  0  0  0  0  0  0
   73.1925   40.0889   39.6210 N   0  0  0  0  0  0  0  0  0  0  0  0
   73.2168   38.7514   39.3073 C   0  0  0  0  0  0  0  0  0  0  0  0
   72.1916   38.0990   39.1973 O   0  0  0  0  0  0  0  0  0  0  0  0
   74.5798   38.1520   39.0555 C   0  0  0  0  0  0  0  0  0  0  0  0
   75.6577   38.9002   39.8194 C   0  0  0  0  0  0  0  0  0  0  0  0
   79.5519   41.7599   44.5121 H   0  0  0  0  0  0  0  0  0  0  0  0
   78.3207   40.7825   43.7762 H   0  0  0  0  0  0  0  0  0  0  0  0
   78.9012   44.6444   39.3975 H   0  0  0  0  0  0  0  0  0  0  0  0
   80.3713   45.2046   41.3354 H   0  0  0  0  0  0  0  0  0  0  0  0
   80.3426   43.8343   43.3722 H   0  0  0  0  0  0  0  0  0  0  0  0
   75.7592   40.4753   38.3526 H   0  0  0  0  0  0  0  0  0  0  0  0
   72.2772   40.4907   39.7814 H   0  0  0  0  0  0  0  0  0  0  0  0
   74.5630   37.1042   39.3717 H   0  0  0  0  0  0  0  0  0  0  0  0
   74.7681   38.1767   37.9777 H   0  0  0  0  0  0  0  0  0  0  0  0
   75.4723   38.7719   40.8897 H   0  0  0  0  0  0  0  0  0  0  0  0
   76.6420   38.4686   39.6122 H   0  0  0  0  0  0  0  0  0  0  0  0
  1  2  1  0  0  0  0
  1 21  1  0  0  0  0
  1 22  1  0  0  0  0
  2  3  1  0  0  0  0
  2 12  2  0  0  0  0
  3  9  2  0  0  0  0
  3  4  1  0  0  0  0
  4  5  2  0  0  0  0
  4  6  1  0  0  0  0
  6  7  1  0  0  0  0
 13  6  1  0  0  0  0
  7  8  2  0  0  0  0
  7  9  1  0  0  0  0
  9 10  1  0  0  0  0
 10 23  1  0  0  0  0
 10 11  2  0  0  0  0
 11 12  1  0  0  0  0
 11 24  1  0  0  0  0
 12 25  1  0  0  0  0
 13 26  1  0  0  0  0
 13 14  1  0  0  0  0
 13 20  1  0  0  0  0
 14 15  2  0  0  0  0
 14 16  1  0  0  0  0
 16 27  1  0  0  0  0
 16 17  1  0  0  0  0
 17 18  2  0  0  0  0
 17 19  1  0  0  0  0
 19 28  1  0  0  0  0
 19 29  1  0  0  0  0
 19 20  1  0  0  0  0
 20 30  1  0  0  0  0
 20 31  1  0  0  0  0
M  ZZC   1 n1
M  ZZC   2 c1
M  ZZC   3 c2
M  ZZC   4 c3
M  ZZC   5 o1
M  ZZC   6 n2
M  ZZC   7 c4
M  ZZC   8 o2
M  ZZC   9 c5
M  ZZC  10 c6
M  ZZC  11 c7
M  ZZC  12 c8
M  ZZC  13 c9
M  ZZC  14 c10
M  ZZC  15 o3
M  ZZC  16 n3
M  ZZC  17 c11
M  ZZC  18 o4
M  ZZC  19 c12
M  ZZC  20 c13
M  ZZC  21 h11
M  ZZC  22 h12
M  ZZC  23 h61
M  ZZC  24 h71
M  ZZC  25 h81
M  ZZC  26 h91
M  ZZC  27 h31
M  ZZC  28 h121
M  ZZC  29 h122
M  ZZC  30 h131
M  ZZC  31 h132
M  ZZM   1 40
M  ZZI   1 224
M  ZZM   2 37
M  ZZI   2 124
M  ZZM   3 37
M  ZZI   3 124
M  ZZM   4 3
M  ZZI   4 121
M  ZZM   5 7
M  ZZI   5 81
M  ZZM   6 10
M  ZZI   6 192
M  ZZM   7 3
M  ZZI   7 121
M  ZZM   8 7
M  ZZI   8 81
M  ZZM   9 37
M  ZZI   9 124
M  ZZM  10 37
M  ZZI  10 125
M  ZZM  11 37
M  ZZI  11 125
M  ZZM  12 37
M  ZZI  12 125
M  ZZM  13 1
M  ZZI  13 113
M  ZZM  14 3
M  ZZI  14 121
M  ZZM  15 7
M  ZZI  15 81
M  ZZM  16 10
M  ZZI  16 191
M  ZZM  17 3
M  ZZI  17 121
M  ZZM  18 7
M  ZZI  18 81
M  ZZM  19 1
M  ZZI  19 112
M  ZZM  20 1
M  ZZI  20 112
M  ZZM  21 28
M  ZZI  21 11
M  ZZM  22 28
M  ZZI  22 11
M  ZZM  23 5
M  ZZI  23 1
M  ZZM  24 5
M  ZZI  24 1
M  ZZM  25 5
M  ZZI  25 1
M  ZZM  26 5
M  ZZI  26 1
M  ZZM  27 28
M  ZZI  27 11
M  ZZM  28 5
M  ZZI  28 1
M  ZZM  29 5
M  ZZI  29 1
M  ZZM  30 5
M  ZZI  30 1
M  ZZM  31 5
M  ZZI  31 1
M  END
> <IX>
1

> <NAME>
Cereblon_3QQU_3.pdb

> <Score>
-17.615967

> <Natom>
31

> <Nflex>
1

> <Hbond>
-3.863555

> <Hphob>
-3.58018

> <VwInt>
-22.222892

> <Dsolv>
14.914078

> <SolEl>
6.037306

> <Eintl>
1.683766

> <RecConf>
ND

> <projPath>
Cereblon_maps/

> <NAME_>
Cereblon_3QQU_3.pdb

$$$$
