Cereblon_5L2I_23.pdb
  MOLSOFT 04032206253D

 29 31  0  0  1  0  0  0  0  0999 V2000
   79.0034   42.4877   42.6741 C   0  0  0  0  0  0  0  0  0  0  0  0
   78.1849   42.1936   41.5980 C   0  0  0  0  0  0  0  0  0  0  0  0
   77.2675   41.0753   41.4115 C   0  0  0  0  0  0  0  0  0  0  0  0
   77.0891   40.2127   42.2577 O   0  0  0  0  0  0  0  0  0  0  0  0
   76.7266   41.2184   40.1468 N   0  0  0  0  0  0  0  0  0  0  0  0
   77.2232   42.3461   39.5247 C   0  0  0  0  0  0  0  0  0  0  0  0
   76.9876   42.7650   38.3986 O   0  0  0  0  0  0  0  0  0  0  0  0
   78.1578   42.9574   40.4700 C   0  0  0  0  0  0  0  0  0  0  0  0
   78.9557   44.0745   40.3291 C   0  0  0  0  0  0  0  0  0  0  0  0
   79.7983   44.3829   41.3909 C   0  0  0  0  0  0  0  0  0  0  0  0
   79.8223   43.6034   42.5481 C   0  0  0  0  0  0  0  0  0  0  0  0
   75.7182   40.3646   39.5132 C   0  0  2  0  0  0  0  0  0  0  0  0
   74.3384   40.9339   39.8017 C   0  0  0  0  0  0  0  0  0  0  0  0
   74.1516   42.1202   40.0161 O   0  0  0  0  0  0  0  0  0  0  0  0
   73.2875   40.0528   39.7249 N   0  0  0  0  0  0  0  0  0  0  0  0
   73.3250   38.7071   39.4529 C   0  0  0  0  0  0  0  0  0  0  0  0
   72.3093   38.0336   39.3950 O   0  0  0  0  0  0  0  0  0  0  0  0
   74.6896   38.1253   39.1770 C   0  0  0  0  0  0  0  0  0  0  0  0
   75.7717   38.8940   39.9146 C   0  0  0  0  0  0  0  0  0  0  0  0
   79.0149   41.8719   43.5692 H   0  0  0  0  0  0  0  0  0  0  0  0
   78.9252   44.6766   39.4286 H   0  0  0  0  0  0  0  0  0  0  0  0
   80.4473   45.2483   41.3211 H   0  0  0  0  0  0  0  0  0  0  0  0
   80.4900   43.8722   43.3620 H   0  0  0  0  0  0  0  0  0  0  0  0
   75.8578   40.4528   38.4338 H   0  0  0  0  0  0  0  0  0  0  0  0
   72.3691   40.4469   39.8870 H   0  0  0  0  0  0  0  0  0  0  0  0
   74.6956   37.0795   39.5000 H   0  0  0  0  0  0  0  0  0  0  0  0
   74.8523   38.1472   38.0951 H   0  0  0  0  0  0  0  0  0  0  0  0
   76.7570   38.4718   39.6922 H   0  0  0  0  0  0  0  0  0  0  0  0
   75.6083   38.7742   40.9893 H   0  0  0  0  0  0  0  0  0  0  0  0
  1 20  1  0  0  0  0
  1  2  1  0  0  0  0
  1 11  2  0  0  0  0
  2  3  1  0  0  0  0
  2  8  2  0  0  0  0
  3  4  2  0  0  0  0
  3  5  1  0  0  0  0
  5  6  1  0  0  0  0
 12  5  1  0  0  0  0
  6  7  2  0  0  0  0
  6  8  1  0  0  0  0
  8  9  1  0  0  0  0
  9 21  1  0  0  0  0
  9 10  2  0  0  0  0
 10 22  1  0  0  0  0
 10 11  1  0  0  0  0
 11 23  1  0  0  0  0
 12 24  1  0  0  0  0
 12 13  1  0  0  0  0
 12 19  1  0  0  0  0
 13 14  2  0  0  0  0
 13 15  1  0  0  0  0
 15 25  1  0  0  0  0
 15 16  1  0  0  0  0
 16 17  2  0  0  0  0
 16 18  1  0  0  0  0
 18 26  1  0  0  0  0
 18 27  1  0  0  0  0
 18 19  1  0  0  0  0
 19 28  1  0  0  0  0
 19 29  1  0  0  0  0
M  ZZC   1 c1
M  ZZC   2 c2
M  ZZC   3 c3
M  ZZC   4 o1
M  ZZC   5 n1
M  ZZC   6 c4
M  ZZC   7 o2
M  ZZC   8 c5
M  ZZC   9 c6
M  ZZC  10 c7
M  ZZC  11 c8
M  ZZC  12 c9
M  ZZC  13 c10
M  ZZC  14 o3
M  ZZC  15 n2
M  ZZC  16 c11
M  ZZC  17 o4
M  ZZC  18 c12
M  ZZC  19 c13
M  ZZC  20 h11
M  ZZC  21 h61
M  ZZC  22 h71
M  ZZC  23 h81
M  ZZC  24 h91
M  ZZC  25 h21
M  ZZC  26 h121
M  ZZC  27 h122
M  ZZC  28 h131
M  ZZC  29 h132
M  ZZM   1 37
M  ZZI   1 125
M  ZZM   2 37
M  ZZI   2 124
M  ZZM   3 3
M  ZZI   3 121
M  ZZM   4 7
M  ZZI   4 81
M  ZZM   5 10
M  ZZI   5 192
M  ZZM   6 3
M  ZZI   6 121
M  ZZM   7 7
M  ZZI   7 81
M  ZZM   8 37
M  ZZI   8 124
M  ZZM   9 37
M  ZZI   9 125
M  ZZM  10 37
M  ZZI  10 125
M  ZZM  11 37
M  ZZI  11 125
M  ZZM  12 1
M  ZZI  12 113
M  ZZM  13 3
M  ZZI  13 121
M  ZZM  14 7
M  ZZI  14 81
M  ZZM  15 10
M  ZZI  15 191
M  ZZM  16 3
M  ZZI  16 121
M  ZZM  17 7
M  ZZI  17 81
M  ZZM  18 1
M  ZZI  18 112
M  ZZM  19 1
M  ZZI  19 112
M  ZZM  20 5
M  ZZI  20 1
M  ZZM  21 5
M  ZZI  21 1
M  ZZM  22 5
M  ZZI  22 1
M  ZZM  23 5
M  ZZI  23 1
M  ZZM  24 5
M  ZZI  24 1
M  ZZM  25 28
M  ZZI  25 11
M  ZZM  26 5
M  ZZI  26 1
M  ZZM  27 5
M  ZZI  27 1
M  ZZM  28 5
M  ZZI  28 1
M  ZZM  29 5
M  ZZI  29 1
M  END
> <IX>
1

> <NAME>
Cereblon_5L2I_23.pdb

> <Score>
-19.392038

> <Natom>
29

> <Nflex>
1

> <Hbond>
-3.368067

> <Hphob>
-3.536515

> <VwInt>
-22.704135

> <Dsolv>
12.022422

> <SolEl>
5.593574

> <Eintl>
1.490327

> <RecConf>
ND

> <projPath>
Cereblon_maps/

> <NAME_>
Cereblon_5L2I_23.pdb

$$$$
