Cereblon_2VTI_17.pdb
  MOLSOFT 04032206203D

 29 31  0  0  1  0  0  0  0  0999 V2000
   78.9547   44.0732   40.3210 C   0  0  0  0  0  0  0  0  0  0  0  0
   78.1575   42.9565   40.4644 C   0  0  0  0  0  0  0  0  0  0  0  0
   77.2229   42.3423   39.5203 C   0  0  0  0  0  0  0  0  0  0  0  0
   76.9844   42.7664   38.3971 O   0  0  0  0  0  0  0  0  0  0  0  0
   76.7267   41.2172   40.1455 N   0  0  0  0  0  0  0  0  0  0  0  0
   77.2679   41.0769   41.4103 C   0  0  0  0  0  0  0  0  0  0  0  0
   77.0859   40.2194   42.2609 O   0  0  0  0  0  0  0  0  0  0  0  0
   78.1849   42.1955   41.5942 C   0  0  0  0  0  0  0  0  0  0  0  0
   79.0027   42.4932   42.6706 C   0  0  0  0  0  0  0  0  0  0  0  0
   79.8238   43.6069   42.5404 C   0  0  0  0  0  0  0  0  0  0  0  0
   79.7983   44.3840   41.3817 C   0  0  0  0  0  0  0  0  0  0  0  0
   75.7178   40.3620   39.5148 C   0  0  2  0  0  0  0  0  0  0  0  0
   74.3382   40.9301   39.8059 C   0  0  0  0  0  0  0  0  0  0  0  0
   74.1490   42.1160   40.0197 O   0  0  0  0  0  0  0  0  0  0  0  0
   73.2878   40.0476   39.7292 N   0  0  0  0  0  0  0  0  0  0  0  0
   73.3269   38.7016   39.4596 C   0  0  0  0  0  0  0  0  0  0  0  0
   72.3122   38.0262   39.4048 O   0  0  0  0  0  0  0  0  0  0  0  0
   74.6917   38.1213   39.1816 C   0  0  0  0  0  0  0  0  0  0  0  0
   75.7744   38.8918   39.9161 C   0  0  0  0  0  0  0  0  0  0  0  0
   78.9215   44.6745   39.4203 H   0  0  0  0  0  0  0  0  0  0  0  0
   79.0167   41.8784   43.5658 H   0  0  0  0  0  0  0  0  0  0  0  0
   80.4936   43.8763   43.3517 H   0  0  0  0  0  0  0  0  0  0  0  0
   80.4445   45.2516   41.3106 H   0  0  0  0  0  0  0  0  0  0  0  0
   75.8563   40.4503   38.4348 H   0  0  0  0  0  0  0  0  0  0  0  0
   72.3691   40.4403   39.8932 H   0  0  0  0  0  0  0  0  0  0  0  0
   74.7004   37.0758   39.5045 H   0  0  0  0  0  0  0  0  0  0  0  0
   74.8521   38.1433   38.0996 H   0  0  0  0  0  0  0  0  0  0  0  0
   75.6135   38.7716   40.9907 H   0  0  0  0  0  0  0  0  0  0  0  0
   76.7597   38.4707   39.6928 H   0  0  0  0  0  0  0  0  0  0  0  0
  1 20  1  0  0  0  0
  1  2  1  0  0  0  0
  1 11  2  0  0  0  0
  2  3  1  0  0  0  0
  2  8  2  0  0  0  0
  3  4  2  0  0  0  0
  3  5  1  0  0  0  0
  5  6  1  0  0  0  0
 12  5  1  0  0  0  0
  6  7  2  0  0  0  0
  6  8  1  0  0  0  0
  8  9  1  0  0  0  0
  9 21  1  0  0  0  0
  9 10  2  0  0  0  0
 10 22  1  0  0  0  0
 10 11  1  0  0  0  0
 11 23  1  0  0  0  0
 12 24  1  0  0  0  0
 12 13  1  0  0  0  0
 12 19  1  0  0  0  0
 13 14  2  0  0  0  0
 13 15  1  0  0  0  0
 15 25  1  0  0  0  0
 15 16  1  0  0  0  0
 16 17  2  0  0  0  0
 16 18  1  0  0  0  0
 18 26  1  0  0  0  0
 18 27  1  0  0  0  0
 18 19  1  0  0  0  0
 19 28  1  0  0  0  0
 19 29  1  0  0  0  0
M  ZZC   1 c1
M  ZZC   2 c2
M  ZZC   3 c3
M  ZZC   4 o1
M  ZZC   5 n1
M  ZZC   6 c4
M  ZZC   7 o2
M  ZZC   8 c5
M  ZZC   9 c6
M  ZZC  10 c7
M  ZZC  11 c8
M  ZZC  12 c9
M  ZZC  13 c10
M  ZZC  14 o3
M  ZZC  15 n2
M  ZZC  16 c11
M  ZZC  17 o4
M  ZZC  18 c12
M  ZZC  19 c13
M  ZZC  20 h11
M  ZZC  21 h61
M  ZZC  22 h71
M  ZZC  23 h81
M  ZZC  24 h91
M  ZZC  25 h21
M  ZZC  26 h121
M  ZZC  27 h122
M  ZZC  28 h131
M  ZZC  29 h132
M  ZZM   1 37
M  ZZI   1 125
M  ZZM   2 37
M  ZZI   2 124
M  ZZM   3 3
M  ZZI   3 121
M  ZZM   4 7
M  ZZI   4 81
M  ZZM   5 10
M  ZZI   5 192
M  ZZM   6 3
M  ZZI   6 121
M  ZZM   7 7
M  ZZI   7 81
M  ZZM   8 37
M  ZZI   8 124
M  ZZM   9 37
M  ZZI   9 125
M  ZZM  10 37
M  ZZI  10 125
M  ZZM  11 37
M  ZZI  11 125
M  ZZM  12 1
M  ZZI  12 113
M  ZZM  13 3
M  ZZI  13 121
M  ZZM  14 7
M  ZZI  14 81
M  ZZM  15 10
M  ZZI  15 191
M  ZZM  16 3
M  ZZI  16 121
M  ZZM  17 7
M  ZZI  17 81
M  ZZM  18 1
M  ZZI  18 112
M  ZZM  19 1
M  ZZI  19 112
M  ZZM  20 5
M  ZZI  20 1
M  ZZM  21 5
M  ZZI  21 1
M  ZZM  22 5
M  ZZI  22 1
M  ZZM  23 5
M  ZZI  23 1
M  ZZM  24 5
M  ZZI  24 1
M  ZZM  25 28
M  ZZI  25 11
M  ZZM  26 5
M  ZZI  26 1
M  ZZM  27 5
M  ZZI  27 1
M  ZZM  28 5
M  ZZI  28 1
M  ZZM  29 5
M  ZZI  29 1
M  END
> <IX>
1

> <NAME>
Cereblon_2VTI_17.pdb

> <Score>
-19.260959

> <Natom>
29

> <Nflex>
1

> <Hbond>
-3.2827

> <Hphob>
-3.52452

> <VwInt>
-22.821136

> <Dsolv>
12.113244

> <SolEl>
5.580323

> <Eintl>
1.431486

> <RecConf>
ND

> <projPath>
Cereblon_maps/

> <NAME_>
Cereblon_2VTI_17.pdb

$$$$
