Cereblon_5VBP_7.pdb
  MOLSOFT 04032206283D

 29 31  0  0  1  0  0  0  0  0999 V2000
   76.3141   40.4857   40.6538 C   0  0  0  0  0  0  0  0  0  0  0  0
   75.3239   40.2795   39.7104 C   0  0  0  0  0  0  0  0  0  0  0  0
   74.4540   41.2455   39.0460 C   0  0  0  0  0  0  0  0  0  0  0  0
   74.4464   42.4305   39.3415 O   0  0  0  0  0  0  0  0  0  0  0  0
   73.6912   40.5320   38.1389 N   0  0  0  0  0  0  0  0  0  0  0  0
   73.9553   39.1809   38.2460 C   0  0  0  0  0  0  0  0  0  0  0  0
   73.4481   38.2408   37.6514 O   0  0  0  0  0  0  0  0  0  0  0  0
   75.0121   39.0398   39.2461 C   0  0  0  0  0  0  0  0  0  0  0  0
   75.6580   37.9044   39.7004 C   0  0  0  0  0  0  0  0  0  0  0  0
   76.6559   38.0869   40.6516 C   0  0  0  0  0  0  0  0  0  0  0  0
   76.9800   39.3599   41.1216 C   0  0  0  0  0  0  0  0  0  0  0  0
   72.6612   41.0712   37.2381 C   0  0  1  0  0  0  0  0  0  0  0  0
   71.3532   41.2746   37.9963 C   0  0  0  0  0  0  0  0  0  0  0  0
   71.0399   40.6189   38.9792 O   0  0  0  0  0  0  0  0  0  0  0  0
   70.4833   42.1949   37.4576 N   0  0  0  0  0  0  0  0  0  0  0  0
   70.6748   43.0438   36.3993 C   0  0  0  0  0  0  0  0  0  0  0  0
   69.8507   43.8991   36.1136 O   0  0  0  0  0  0  0  0  0  0  0  0
   71.9466   42.8340   35.6169 C   0  0  0  0  0  0  0  0  0  0  0  0
   73.0741   42.3518   36.5164 C   0  0  0  0  0  0  0  0  0  0  0  0
   76.5683   41.4794   41.0090 H   0  0  0  0  0  0  0  0  0  0  0  0
   75.4043   36.9164   39.3272 H   0  0  0  0  0  0  0  0  0  0  0  0
   77.1944   37.2250   41.0330 H   0  0  0  0  0  0  0  0  0  0  0  0
   77.7647   39.4746   41.8636 H   0  0  0  0  0  0  0  0  0  0  0  0
   72.4502   40.3011   36.4870 H   0  0  0  0  0  0  0  0  0  0  0  0
   69.6125   42.3237   37.9517 H   0  0  0  0  0  0  0  0  0  0  0  0
   71.7467   42.1166   34.8136 H   0  0  0  0  0  0  0  0  0  0  0  0
   72.2236   43.7866   35.1617 H   0  0  0  0  0  0  0  0  0  0  0  0
   73.9769   42.1770   35.9216 H   0  0  0  0  0  0  0  0  0  0  0  0
   73.3187   43.1444   37.2296 H   0  0  0  0  0  0  0  0  0  0  0  0
  1 20  1  0  0  0  0
  1  2  1  0  0  0  0
  1 11  2  0  0  0  0
  2  3  1  0  0  0  0
  2  8  2  0  0  0  0
  3  4  2  0  0  0  0
  3  5  1  0  0  0  0
  5  6  1  0  0  0  0
 12  5  1  0  0  0  0
  6  7  2  0  0  0  0
  6  8  1  0  0  0  0
  8  9  1  0  0  0  0
  9 21  1  0  0  0  0
  9 10  2  0  0  0  0
 10 22  1  0  0  0  0
 10 11  1  0  0  0  0
 11 23  1  0  0  0  0
 12 24  1  0  0  0  0
 12 13  1  0  0  0  0
 12 19  1  0  0  0  0
 13 14  2  0  0  0  0
 13 15  1  0  0  0  0
 15 25  1  0  0  0  0
 15 16  1  0  0  0  0
 16 17  2  0  0  0  0
 16 18  1  0  0  0  0
 18 26  1  0  0  0  0
 18 27  1  0  0  0  0
 18 19  1  0  0  0  0
 19 28  1  0  0  0  0
 19 29  1  0  0  0  0
M  ZZC   1 c1
M  ZZC   2 c2
M  ZZC   3 c3
M  ZZC   4 o1
M  ZZC   5 n1
M  ZZC   6 c4
M  ZZC   7 o2
M  ZZC   8 c5
M  ZZC   9 c6
M  ZZC  10 c7
M  ZZC  11 c8
M  ZZC  12 c9
M  ZZC  13 c10
M  ZZC  14 o3
M  ZZC  15 n2
M  ZZC  16 c11
M  ZZC  17 o4
M  ZZC  18 c12
M  ZZC  19 c13
M  ZZC  20 h11
M  ZZC  21 h61
M  ZZC  22 h71
M  ZZC  23 h81
M  ZZC  24 h91
M  ZZC  25 h21
M  ZZC  26 h121
M  ZZC  27 h122
M  ZZC  28 h131
M  ZZC  29 h132
M  ZZM   1 37
M  ZZI   1 125
M  ZZM   2 37
M  ZZI   2 124
M  ZZM   3 3
M  ZZI   3 121
M  ZZM   4 7
M  ZZI   4 81
M  ZZM   5 10
M  ZZI   5 192
M  ZZM   6 3
M  ZZI   6 121
M  ZZM   7 7
M  ZZI   7 81
M  ZZM   8 37
M  ZZI   8 124
M  ZZM   9 37
M  ZZI   9 125
M  ZZM  10 37
M  ZZI  10 125
M  ZZM  11 37
M  ZZI  11 125
M  ZZM  12 1
M  ZZI  12 113
M  ZZM  13 3
M  ZZI  13 121
M  ZZM  14 7
M  ZZI  14 81
M  ZZM  15 10
M  ZZI  15 191
M  ZZM  16 3
M  ZZI  16 121
M  ZZM  17 7
M  ZZI  17 81
M  ZZM  18 1
M  ZZI  18 112
M  ZZM  19 1
M  ZZI  19 112
M  ZZM  20 5
M  ZZI  20 1
M  ZZM  21 5
M  ZZI  21 1
M  ZZM  22 5
M  ZZI  22 1
M  ZZM  23 5
M  ZZI  23 1
M  ZZM  24 5
M  ZZI  24 1
M  ZZM  25 28
M  ZZI  25 11
M  ZZM  26 5
M  ZZI  26 1
M  ZZM  27 5
M  ZZI  27 1
M  ZZM  28 5
M  ZZI  28 1
M  ZZM  29 5
M  ZZI  29 1
M  END
> <IX>
1

> <NAME>
Cereblon_5VBP_7.pdb

> <Score>
-21.067901

> <Natom>
29

> <Nflex>
1

> <Hbond>
-4.519007

> <Hphob>
-3.520204

> <VwInt>
-22.562894

> <Dsolv>
13.49377

> <SolEl>
6.397169

> <Eintl>
0.573599

> <RecConf>
ND

> <projPath>
Cereblon_maps/

> <NAME_>
Cereblon_5VBP_7.pdb

$$$$
