Cereblon_5VBP_36.pdb
  MOLSOFT 04032206283D

 30 32  0  0  1  0  0  0  0  0999 V2000
   78.9595   42.3481   42.8081 C   0  0  0  0  0  0  0  0  0  0  0  0
   78.1534   42.0554   41.7207 C   0  0  0  0  0  0  0  0  0  0  0  0
   78.1614   42.8619   40.6133 C   0  0  0  0  0  0  0  0  0  0  0  0
   77.2313   42.3016   39.6251 C   0  0  0  0  0  0  0  0  0  0  0  0
   77.0130   42.7687   38.5146 O   0  0  0  0  0  0  0  0  0  0  0  0
   76.7061   41.1570   40.1928 N   0  0  0  0  0  0  0  0  0  0  0  0
   75.6909   40.3310   39.5345 C   0  0  2  0  0  0  0  0  0  0  0  0
   74.3088   40.9169   39.7947 C   0  0  0  0  0  0  0  0  0  0  0  0
   74.1225   42.1049   40.0017 O   0  0  0  0  0  0  0  0  0  0  0  0
   73.2525   40.0431   39.7102 N   0  0  0  0  0  0  0  0  0  0  0  0
   73.2822   38.6942   39.4561 C   0  0  0  0  0  0  0  0  0  0  0  0
   72.2614   38.0287   39.3947 O   0  0  0  0  0  0  0  0  0  0  0  0
   74.6447   38.0969   39.2052 C   0  0  0  0  0  0  0  0  0  0  0  0
   75.7278   38.8633   39.9430 C   0  0  0  0  0  0  0  0  0  0  0  0
   77.2289   40.9105   41.5269 C   0  0  0  0  0  0  0  0  0  0  0  0
   78.9675   43.9785   40.5060 C   0  0  0  0  0  0  0  0  0  0  0  0
   79.7886   44.2689   41.5869 C   0  0  0  0  0  0  0  0  0  0  0  0
   79.7833   43.4643   42.7243 C   0  0  0  0  0  0  0  0  0  0  0  0
   78.9587   41.7220   43.6957 H   0  0  0  0  0  0  0  0  0  0  0  0
   75.8546   40.4215   38.4585 H   0  0  0  0  0  0  0  0  0  0  0  0
   72.3358   40.4479   39.8542 H   0  0  0  0  0  0  0  0  0  0  0  0
   74.6371   37.0551   39.5411 H   0  0  0  0  0  0  0  0  0  0  0  0
   74.8215   38.1039   38.1251 H   0  0  0  0  0  0  0  0  0  0  0  0
   75.5719   38.7587   41.0214 H   0  0  0  0  0  0  0  0  0  0  0  0
   76.7091   38.4305   39.7218 H   0  0  0  0  0  0  0  0  0  0  0  0
   77.7709   39.9589   41.5394 H   0  0  0  0  0  0  0  0  0  0  0  0
   76.4193   40.9111   42.2596 H   0  0  0  0  0  0  0  0  0  0  0  0
   78.9562   44.5978   39.6164 H   0  0  0  0  0  0  0  0  0  0  0  0
   80.4365   45.1372   41.5487 H   0  0  0  0  0  0  0  0  0  0  0  0
   80.4329   43.7124   43.5585 H   0  0  0  0  0  0  0  0  0  0  0  0
  1 19  1  0  0  0  0
  1 18  2  0  0  0  0
  1  2  1  0  0  0  0
  2  3  2  0  0  0  0
  2 15  1  0  0  0  0
  3 16  1  0  0  0  0
  3  4  1  0  0  0  0
  4  6  1  0  0  0  0
  4  5  2  0  0  0  0
  6 15  1  0  0  0  0
  7  6  1  0  0  0  0
  7 20  1  0  0  0  0
  7  8  1  0  0  0  0
  7 14  1  0  0  0  0
  8  9  2  0  0  0  0
  8 10  1  0  0  0  0
 10 21  1  0  0  0  0
 10 11  1  0  0  0  0
 11 12  2  0  0  0  0
 11 13  1  0  0  0  0
 13 22  1  0  0  0  0
 13 23  1  0  0  0  0
 13 14  1  0  0  0  0
 14 24  1  0  0  0  0
 14 25  1  0  0  0  0
 15 26  1  0  0  0  0
 15 27  1  0  0  0  0
 16 17  2  0  0  0  0
 16 28  1  0  0  0  0
 17 18  1  0  0  0  0
 17 29  1  0  0  0  0
 18 30  1  0  0  0  0
M  ZZC   1 c1
M  ZZC   2 c2
M  ZZC   3 c3
M  ZZC   4 c4
M  ZZC   5 o1
M  ZZC   6 n1
M  ZZC   7 c5
M  ZZC   8 c6
M  ZZC   9 o2
M  ZZC  10 n2
M  ZZC  11 c7
M  ZZC  12 o3
M  ZZC  13 c8
M  ZZC  14 c9
M  ZZC  15 c10
M  ZZC  16 c11
M  ZZC  17 c12
M  ZZC  18 c13
M  ZZC  19 h11
M  ZZC  20 h51
M  ZZC  21 h21
M  ZZC  22 h81
M  ZZC  23 h82
M  ZZC  24 h91
M  ZZC  25 h92
M  ZZC  26 h101
M  ZZC  27 h102
M  ZZC  28 h111
M  ZZC  29 h121
M  ZZC  30 h131
M  ZZM   1 37
M  ZZI   1 125
M  ZZM   2 37
M  ZZI   2 124
M  ZZM   3 37
M  ZZI   3 124
M  ZZM   4 3
M  ZZI   4 121
M  ZZM   5 7
M  ZZI   5 81
M  ZZM   6 10
M  ZZI   6 192
M  ZZM   7 1
M  ZZI   7 113
M  ZZM   8 3
M  ZZI   8 121
M  ZZM   9 7
M  ZZI   9 81
M  ZZM  10 10
M  ZZI  10 191
M  ZZM  11 3
M  ZZI  11 121
M  ZZM  12 7
M  ZZI  12 81
M  ZZM  13 1
M  ZZI  13 112
M  ZZM  14 1
M  ZZI  14 112
M  ZZM  15 1
M  ZZI  15 112
M  ZZM  16 37
M  ZZI  16 125
M  ZZM  17 37
M  ZZI  17 125
M  ZZM  18 37
M  ZZI  18 125
M  ZZM  19 5
M  ZZI  19 1
M  ZZM  20 5
M  ZZI  20 1
M  ZZM  21 28
M  ZZI  21 11
M  ZZM  22 5
M  ZZI  22 1
M  ZZM  23 5
M  ZZI  23 1
M  ZZM  24 5
M  ZZI  24 1
M  ZZM  25 5
M  ZZI  25 1
M  ZZM  26 5
M  ZZI  26 1
M  ZZM  27 5
M  ZZI  27 1
M  ZZM  28 5
M  ZZI  28 1
M  ZZM  29 5
M  ZZI  29 1
M  ZZM  30 5
M  ZZI  30 1
M  END
> <IX>
1

> <NAME>
Cereblon_5VBP_36.pdb

> <Score>
-18.675537

> <Natom>
30

> <Nflex>
1

> <Hbond>
-3.220384

> <Hphob>
-3.865371

> <VwInt>
-21.102254

> <Dsolv>
10.950521

> <SolEl>
5.641477

> <Eintl>
1.046372

> <RecConf>
ND

> <projPath>
Cereblon_maps/

> <NAME_>
Cereblon_5VBP_36.pdb

$$$$
