Cereblon_1FKH_3.pdb
  MOLSOFT 04032206183D

 29 31  0  0  1  0  0  0  0  0999 V2000
   76.3126   40.4911   40.6539 C   0  0  0  0  0  0  0  0  0  0  0  0
   75.3242   40.2833   39.7091 C   0  0  0  0  0  0  0  0  0  0  0  0
   74.4530   41.2477   39.0440 C   0  0  0  0  0  0  0  0  0  0  0  0
   74.4442   42.4326   39.3398 O   0  0  0  0  0  0  0  0  0  0  0  0
   73.6915   40.5326   38.1371 N   0  0  0  0  0  0  0  0  0  0  0  0
   73.9560   39.1817   38.2456 C   0  0  0  0  0  0  0  0  0  0  0  0
   73.4489   38.2403   37.6532 O   0  0  0  0  0  0  0  0  0  0  0  0
   75.0133   39.0429   39.2457 C   0  0  0  0  0  0  0  0  0  0  0  0
   75.6587   37.9084   39.7027 C   0  0  0  0  0  0  0  0  0  0  0  0
   76.6555   38.0925   40.6548 C   0  0  0  0  0  0  0  0  0  0  0  0
   76.9783   39.3659   41.1240 C   0  0  0  0  0  0  0  0  0  0  0  0
   72.6606   41.0706   37.2367 C   0  0  1  0  0  0  0  0  0  0  0  0
   71.3530   41.2743   37.9955 C   0  0  0  0  0  0  0  0  0  0  0  0
   71.0398   40.6187   38.9785 O   0  0  0  0  0  0  0  0  0  0  0  0
   70.4830   42.1950   37.4574 N   0  0  0  0  0  0  0  0  0  0  0  0
   70.6737   43.0434   36.3985 C   0  0  0  0  0  0  0  0  0  0  0  0
   69.8496   43.8990   36.1133 O   0  0  0  0  0  0  0  0  0  0  0  0
   71.9439   42.8313   35.6140 C   0  0  0  0  0  0  0  0  0  0  0  0
   73.0723   42.3511   36.5130 C   0  0  0  0  0  0  0  0  0  0  0  0
   76.5672   41.4852   41.0080 H   0  0  0  0  0  0  0  0  0  0  0  0
   75.4056   36.9201   39.3303 H   0  0  0  0  0  0  0  0  0  0  0  0
   77.1930   37.2310   41.0390 H   0  0  0  0  0  0  0  0  0  0  0  0
   77.7615   39.4821   41.8674 H   0  0  0  0  0  0  0  0  0  0  0  0
   72.4501   40.2996   36.4863 H   0  0  0  0  0  0  0  0  0  0  0  0
   69.6130   42.3249   37.9527 H   0  0  0  0  0  0  0  0  0  0  0  0
   71.7416   42.1116   34.8136 H   0  0  0  0  0  0  0  0  0  0  0  0
   72.2195   43.7832   35.1559 H   0  0  0  0  0  0  0  0  0  0  0  0
   73.3172   43.1440   37.2249 H   0  0  0  0  0  0  0  0  0  0  0  0
   73.9749   42.1772   35.9186 H   0  0  0  0  0  0  0  0  0  0  0  0
  1 20  1  0  0  0  0
  1  2  1  0  0  0  0
  1 11  2  0  0  0  0
  2  3  1  0  0  0  0
  2  8  2  0  0  0  0
  3  4  2  0  0  0  0
  3  5  1  0  0  0  0
  5  6  1  0  0  0  0
 12  5  1  0  0  0  0
  6  7  2  0  0  0  0
  6  8  1  0  0  0  0
  8  9  1  0  0  0  0
  9 21  1  0  0  0  0
  9 10  2  0  0  0  0
 10 22  1  0  0  0  0
 10 11  1  0  0  0  0
 11 23  1  0  0  0  0
 12 24  1  0  0  0  0
 12 13  1  0  0  0  0
 12 19  1  0  0  0  0
 13 14  2  0  0  0  0
 13 15  1  0  0  0  0
 15 25  1  0  0  0  0
 15 16  1  0  0  0  0
 16 17  2  0  0  0  0
 16 18  1  0  0  0  0
 18 26  1  0  0  0  0
 18 27  1  0  0  0  0
 18 19  1  0  0  0  0
 19 28  1  0  0  0  0
 19 29  1  0  0  0  0
M  ZZC   1 c1
M  ZZC   2 c2
M  ZZC   3 c3
M  ZZC   4 o1
M  ZZC   5 n1
M  ZZC   6 c4
M  ZZC   7 o2
M  ZZC   8 c5
M  ZZC   9 c6
M  ZZC  10 c7
M  ZZC  11 c8
M  ZZC  12 c9
M  ZZC  13 c10
M  ZZC  14 o3
M  ZZC  15 n2
M  ZZC  16 c11
M  ZZC  17 o4
M  ZZC  18 c12
M  ZZC  19 c13
M  ZZC  20 h11
M  ZZC  21 h61
M  ZZC  22 h71
M  ZZC  23 h81
M  ZZC  24 h91
M  ZZC  25 h21
M  ZZC  26 h121
M  ZZC  27 h122
M  ZZC  28 h131
M  ZZC  29 h132
M  ZZM   1 37
M  ZZI   1 125
M  ZZM   2 37
M  ZZI   2 124
M  ZZM   3 3
M  ZZI   3 121
M  ZZM   4 7
M  ZZI   4 81
M  ZZM   5 10
M  ZZI   5 192
M  ZZM   6 3
M  ZZI   6 121
M  ZZM   7 7
M  ZZI   7 81
M  ZZM   8 37
M  ZZI   8 124
M  ZZM   9 37
M  ZZI   9 125
M  ZZM  10 37
M  ZZI  10 125
M  ZZM  11 37
M  ZZI  11 125
M  ZZM  12 1
M  ZZI  12 113
M  ZZM  13 3
M  ZZI  13 121
M  ZZM  14 7
M  ZZI  14 81
M  ZZM  15 10
M  ZZI  15 191
M  ZZM  16 3
M  ZZI  16 121
M  ZZM  17 7
M  ZZI  17 81
M  ZZM  18 1
M  ZZI  18 112
M  ZZM  19 1
M  ZZI  19 112
M  ZZM  20 5
M  ZZI  20 1
M  ZZM  21 5
M  ZZI  21 1
M  ZZM  22 5
M  ZZI  22 1
M  ZZM  23 5
M  ZZI  23 1
M  ZZM  24 5
M  ZZI  24 1
M  ZZM  25 28
M  ZZI  25 11
M  ZZM  26 5
M  ZZI  26 1
M  ZZM  27 5
M  ZZI  27 1
M  ZZM  28 5
M  ZZI  28 1
M  ZZM  29 5
M  ZZI  29 1
M  END
> <IX>
1

> <NAME>
Cereblon_1FKH_3.pdb

> <Score>
-20.635973

> <Natom>
29

> <Nflex>
1

> <Hbond>
-4.579169

> <Hphob>
-3.541994

> <VwInt>
-22.326233

> <Dsolv>
13.47432

> <SolEl>
6.966086

> <Eintl>
0.575562

> <RecConf>
ND

> <projPath>
Cereblon_maps/

> <NAME_>
Cereblon_1FKH_3.pdb

$$$$
