Cereblon_5VBP_8.pdb
  MOLSOFT 04032206283D

 29 31  0  0  1  0  0  0  0  0999 V2000
   76.3122   40.4912   40.6525 C   0  0  0  0  0  0  0  0  0  0  0  0
   75.3232   40.2830   39.7084 C   0  0  0  0  0  0  0  0  0  0  0  0
   74.4517   41.2471   39.0436 C   0  0  0  0  0  0  0  0  0  0  0  0
   74.4442   42.4323   39.3382 O   0  0  0  0  0  0  0  0  0  0  0  0
   73.6891   40.5317   38.1378 N   0  0  0  0  0  0  0  0  0  0  0  0
   73.9538   39.1809   38.2467 C   0  0  0  0  0  0  0  0  0  0  0  0
   73.4474   38.2392   37.6541 O   0  0  0  0  0  0  0  0  0  0  0  0
   75.0120   39.0424   39.2458 C   0  0  0  0  0  0  0  0  0  0  0  0
   75.6584   37.9081   39.7023 C   0  0  0  0  0  0  0  0  0  0  0  0
   76.6549   38.0926   40.6547 C   0  0  0  0  0  0  0  0  0  0  0  0
   76.9778   39.3663   41.1233 C   0  0  0  0  0  0  0  0  0  0  0  0
   72.6588   41.0694   37.2368 C   0  0  1  0  0  0  0  0  0  0  0  0
   71.3511   41.2735   37.9954 C   0  0  0  0  0  0  0  0  0  0  0  0
   71.0368   40.6172   38.9775 O   0  0  0  0  0  0  0  0  0  0  0  0
   70.4820   42.1950   37.4574 N   0  0  0  0  0  0  0  0  0  0  0  0
   70.6735   43.0431   36.3984 C   0  0  0  0  0  0  0  0  0  0  0  0
   69.8503   43.8997   36.1136 O   0  0  0  0  0  0  0  0  0  0  0  0
   71.9425   42.8285   35.6129 C   0  0  0  0  0  0  0  0  0  0  0  0
   73.0712   42.3494   36.5123 C   0  0  0  0  0  0  0  0  0  0  0  0
   76.5664   41.4855   41.0058 H   0  0  0  0  0  0  0  0  0  0  0  0
   75.4042   36.9196   39.3313 H   0  0  0  0  0  0  0  0  0  0  0  0
   77.1917   37.2311   41.0396 H   0  0  0  0  0  0  0  0  0  0  0  0
   77.7605   39.4825   41.8672 H   0  0  0  0  0  0  0  0  0  0  0  0
   72.4482   40.2981   36.4868 H   0  0  0  0  0  0  0  0  0  0  0  0
   69.6119   42.3253   37.9524 H   0  0  0  0  0  0  0  0  0  0  0  0
   71.7391   42.1077   34.8137 H   0  0  0  0  0  0  0  0  0  0  0  0
   72.2191   43.7793   35.1530 H   0  0  0  0  0  0  0  0  0  0  0  0
   73.3165   43.1426   37.2237 H   0  0  0  0  0  0  0  0  0  0  0  0
   73.9737   42.1740   35.9183 H   0  0  0  0  0  0  0  0  0  0  0  0
  1 20  1  0  0  0  0
  1  2  1  0  0  0  0
  1 11  2  0  0  0  0
  2  3  1  0  0  0  0
  2  8  2  0  0  0  0
  3  4  2  0  0  0  0
  3  5  1  0  0  0  0
  5  6  1  0  0  0  0
 12  5  1  0  0  0  0
  6  7  2  0  0  0  0
  6  8  1  0  0  0  0
  8  9  1  0  0  0  0
  9 21  1  0  0  0  0
  9 10  2  0  0  0  0
 10 22  1  0  0  0  0
 10 11  1  0  0  0  0
 11 23  1  0  0  0  0
 12 24  1  0  0  0  0
 12 13  1  0  0  0  0
 12 19  1  0  0  0  0
 13 14  2  0  0  0  0
 13 15  1  0  0  0  0
 15 25  1  0  0  0  0
 15 16  1  0  0  0  0
 16 17  2  0  0  0  0
 16 18  1  0  0  0  0
 18 26  1  0  0  0  0
 18 27  1  0  0  0  0
 18 19  1  0  0  0  0
 19 28  1  0  0  0  0
 19 29  1  0  0  0  0
M  ZZC   1 c1
M  ZZC   2 c2
M  ZZC   3 c3
M  ZZC   4 o1
M  ZZC   5 n1
M  ZZC   6 c4
M  ZZC   7 o2
M  ZZC   8 c5
M  ZZC   9 c6
M  ZZC  10 c7
M  ZZC  11 c8
M  ZZC  12 c9
M  ZZC  13 c10
M  ZZC  14 o3
M  ZZC  15 n2
M  ZZC  16 c11
M  ZZC  17 o4
M  ZZC  18 c12
M  ZZC  19 c13
M  ZZC  20 h11
M  ZZC  21 h61
M  ZZC  22 h71
M  ZZC  23 h81
M  ZZC  24 h91
M  ZZC  25 h21
M  ZZC  26 h121
M  ZZC  27 h122
M  ZZC  28 h131
M  ZZC  29 h132
M  ZZM   1 37
M  ZZI   1 125
M  ZZM   2 37
M  ZZI   2 124
M  ZZM   3 3
M  ZZI   3 121
M  ZZM   4 7
M  ZZI   4 81
M  ZZM   5 10
M  ZZI   5 192
M  ZZM   6 3
M  ZZI   6 121
M  ZZM   7 7
M  ZZI   7 81
M  ZZM   8 37
M  ZZI   8 124
M  ZZM   9 37
M  ZZI   9 125
M  ZZM  10 37
M  ZZI  10 125
M  ZZM  11 37
M  ZZI  11 125
M  ZZM  12 1
M  ZZI  12 113
M  ZZM  13 3
M  ZZI  13 121
M  ZZM  14 7
M  ZZI  14 81
M  ZZM  15 10
M  ZZI  15 191
M  ZZM  16 3
M  ZZI  16 121
M  ZZM  17 7
M  ZZI  17 81
M  ZZM  18 1
M  ZZI  18 112
M  ZZM  19 1
M  ZZI  19 112
M  ZZM  20 5
M  ZZI  20 1
M  ZZM  21 5
M  ZZI  21 1
M  ZZM  22 5
M  ZZI  22 1
M  ZZM  23 5
M  ZZI  23 1
M  ZZM  24 5
M  ZZI  24 1
M  ZZM  25 28
M  ZZI  25 11
M  ZZM  26 5
M  ZZI  26 1
M  ZZM  27 5
M  ZZI  27 1
M  ZZM  28 5
M  ZZI  28 1
M  ZZM  29 5
M  ZZI  29 1
M  END
> <IX>
1

> <NAME>
Cereblon_5VBP_8.pdb

> <Score>
-20.63501

> <Natom>
29

> <Nflex>
1

> <Hbond>
-4.575301

> <Hphob>
-3.575168

> <VwInt>
-22.367336

> <Dsolv>
13.472112

> <SolEl>
7.050353

> <Eintl>
0.576472

> <RecConf>
ND

> <projPath>
Cereblon_maps/

> <NAME_>
Cereblon_5VBP_8.pdb

$$$$
