Cereblon_6NUQ_5.pdb
  MOLSOFT 04032206293D

 30 32  0  0  1  0  0  0  0  0999 V2000
   76.0556   42.8350   38.6276 C   0  0  0  0  0  0  0  0  0  0  0  0
   74.9780   42.0550   38.2425 C   0  0  0  0  0  0  0  0  0  0  0  0
   74.7318   40.8679   38.8716 C   0  0  0  0  0  0  0  0  0  0  0  0
   73.5612   40.2489   38.2451 C   0  0  0  0  0  0  0  0  0  0  0  0
   73.1177   39.1561   38.5660 O   0  0  0  0  0  0  0  0  0  0  0  0
   73.1184   41.1250   37.2699 N   0  0  0  0  0  0  0  0  0  0  0  0
   71.9699   40.8461   36.3875 C   0  0  1  0  0  0  0  0  0  0  0  0
   70.6440   41.0220   37.1272 C   0  0  0  0  0  0  0  0  0  0  0  0
   70.2075   40.2251   37.9437 O   0  0  0  0  0  0  0  0  0  0  0  0
   69.9334   42.1616   36.8644 N   0  0  0  0  0  0  0  0  0  0  0  0
   70.2208   43.1847   36.0131 C   0  0  0  0  0  0  0  0  0  0  0  0
   69.4988   44.1647   35.9740 O   0  0  0  0  0  0  0  0  0  0  0  0
   71.4782   43.0544   35.1989 C   0  0  0  0  0  0  0  0  0  0  0  0
   71.9294   41.6061   35.0595 C   0  0  0  0  0  0  0  0  0  0  0  0
   73.9722   42.2984   37.1770 C   0  0  0  0  0  0  0  0  0  0  0  0
   75.5086   40.3875   39.9090 C   0  0  0  0  0  0  0  0  0  0  0  0
   76.5722   41.1780   40.3173 C   0  0  0  0  0  0  0  0  0  0  0  0
   76.8410   42.3873   39.6814 C   0  0  0  0  0  0  0  0  0  0  0  0
   76.2893   43.7698   38.1275 H   0  0  0  0  0  0  0  0  0  0  0  0
   72.0307   39.7781   36.1495 H   0  0  0  0  0  0  0  0  0  0  0  0
   69.0629   42.2621   37.3701 H   0  0  0  0  0  0  0  0  0  0  0  0
   71.2731   43.4597   34.2052 H   0  0  0  0  0  0  0  0  0  0  0  0
   72.2455   43.6846   35.6523 H   0  0  0  0  0  0  0  0  0  0  0  0
   71.2180   41.0994   34.3969 H   0  0  0  0  0  0  0  0  0  0  0  0
   72.8978   41.5628   34.5530 H   0  0  0  0  0  0  0  0  0  0  0  0
   73.3917   43.2000   37.3801 H   0  0  0  0  0  0  0  0  0  0  0  0
   74.4457   42.3388   36.1910 H   0  0  0  0  0  0  0  0  0  0  0  0
   75.2968   39.4346   40.3832 H   0  0  0  0  0  0  0  0  0  0  0  0
   77.2091   40.8465   41.1319 H   0  0  0  0  0  0  0  0  0  0  0  0
   77.6858   42.9852   40.0096 H   0  0  0  0  0  0  0  0  0  0  0  0
  1 19  1  0  0  0  0
  1 18  2  0  0  0  0
  1  2  1  0  0  0  0
  2  3  2  0  0  0  0
  2 15  1  0  0  0  0
  3 16  1  0  0  0  0
  3  4  1  0  0  0  0
  4  6  1  0  0  0  0
  4  5  2  0  0  0  0
  6 15  1  0  0  0  0
  7  6  1  0  0  0  0
  7 20  1  0  0  0  0
  7  8  1  0  0  0  0
  7 14  1  0  0  0  0
  8  9  2  0  0  0  0
  8 10  1  0  0  0  0
 10 21  1  0  0  0  0
 10 11  1  0  0  0  0
 11 12  2  0  0  0  0
 11 13  1  0  0  0  0
 13 22  1  0  0  0  0
 13 23  1  0  0  0  0
 13 14  1  0  0  0  0
 14 24  1  0  0  0  0
 14 25  1  0  0  0  0
 15 26  1  0  0  0  0
 15 27  1  0  0  0  0
 16 17  2  0  0  0  0
 16 28  1  0  0  0  0
 17 18  1  0  0  0  0
 17 29  1  0  0  0  0
 18 30  1  0  0  0  0
M  ZZC   1 c1
M  ZZC   2 c2
M  ZZC   3 c3
M  ZZC   4 c4
M  ZZC   5 o1
M  ZZC   6 n1
M  ZZC   7 c5
M  ZZC   8 c6
M  ZZC   9 o2
M  ZZC  10 n2
M  ZZC  11 c7
M  ZZC  12 o3
M  ZZC  13 c8
M  ZZC  14 c9
M  ZZC  15 c10
M  ZZC  16 c11
M  ZZC  17 c12
M  ZZC  18 c13
M  ZZC  19 h11
M  ZZC  20 h51
M  ZZC  21 h21
M  ZZC  22 h81
M  ZZC  23 h82
M  ZZC  24 h91
M  ZZC  25 h92
M  ZZC  26 h101
M  ZZC  27 h102
M  ZZC  28 h111
M  ZZC  29 h121
M  ZZC  30 h131
M  ZZM   1 37
M  ZZI   1 125
M  ZZM   2 37
M  ZZI   2 124
M  ZZM   3 37
M  ZZI   3 124
M  ZZM   4 3
M  ZZI   4 121
M  ZZM   5 7
M  ZZI   5 81
M  ZZM   6 10
M  ZZI   6 192
M  ZZM   7 1
M  ZZI   7 113
M  ZZM   8 3
M  ZZI   8 121
M  ZZM   9 7
M  ZZI   9 81
M  ZZM  10 10
M  ZZI  10 191
M  ZZM  11 3
M  ZZI  11 121
M  ZZM  12 7
M  ZZI  12 81
M  ZZM  13 1
M  ZZI  13 112
M  ZZM  14 1
M  ZZI  14 112
M  ZZM  15 1
M  ZZI  15 112
M  ZZM  16 37
M  ZZI  16 125
M  ZZM  17 37
M  ZZI  17 125
M  ZZM  18 37
M  ZZI  18 125
M  ZZM  19 5
M  ZZI  19 1
M  ZZM  20 5
M  ZZI  20 1
M  ZZM  21 28
M  ZZI  21 11
M  ZZM  22 5
M  ZZI  22 1
M  ZZM  23 5
M  ZZI  23 1
M  ZZM  24 5
M  ZZI  24 1
M  ZZM  25 5
M  ZZI  25 1
M  ZZM  26 5
M  ZZI  26 1
M  ZZM  27 5
M  ZZI  27 1
M  ZZM  28 5
M  ZZI  28 1
M  ZZM  29 5
M  ZZI  29 1
M  ZZM  30 5
M  ZZI  30 1
M  END
> <IX>
1

> <NAME>
Cereblon_6NUQ_5.pdb

> <Score>
-14.32839

> <Natom>
30

> <Nflex>
1

> <Hbond>
-4.290964

> <Hphob>
-3.955532

> <VwInt>
-21.85833

> <Dsolv>
12.54693

> <SolEl>
11.762016

> <Eintl>
5.438594

> <RecConf>
ND

> <projPath>
Cereblon_maps/

> <NAME_>
Cereblon_6NUQ_5.pdb

$$$$
