Cereblon_5EU1_5.pdb
  MOLSOFT 04032206243D

 31 33  0  0  1  0  0  0  0  0999 V2000
   78.8132   41.6779   43.8183 N   0  0  0  0  0  0  0  0  0  0  0  0
   78.9069   42.4225   42.6319 C   0  0  0  0  0  0  0  0  0  0  0  0
   78.1004   42.1574   41.5378 C   0  0  0  0  0  0  0  0  0  0  0  0
   77.1796   41.0466   41.3306 C   0  0  0  0  0  0  0  0  0  0  0  0
   76.9991   40.1635   42.1560 O   0  0  0  0  0  0  0  0  0  0  0  0
   76.6456   41.2105   40.0680 N   0  0  0  0  0  0  0  0  0  0  0  0
   77.1663   42.3315   39.4543 C   0  0  0  0  0  0  0  0  0  0  0  0
   76.9532   42.7543   38.3254 O   0  0  0  0  0  0  0  0  0  0  0  0
   78.0973   42.9272   40.4141 C   0  0  0  0  0  0  0  0  0  0  0  0
   78.9083   44.0368   40.2938 C   0  0  0  0  0  0  0  0  0  0  0  0
   79.7237   44.3373   41.3787 C   0  0  0  0  0  0  0  0  0  0  0  0
   79.7110   43.5541   42.5345 C   0  0  0  0  0  0  0  0  0  0  0  0
   75.6256   40.3743   39.4314 C   0  0  2  0  0  0  0  0  0  0  0  0
   74.2543   40.9534   39.7355 C   0  0  0  0  0  0  0  0  0  0  0  0
   74.0843   42.1334   39.9937 O   0  0  0  0  0  0  0  0  0  0  0  0
   73.1932   40.0890   39.6199 N   0  0  0  0  0  0  0  0  0  0  0  0
   73.2174   38.7508   39.3095 C   0  0  0  0  0  0  0  0  0  0  0  0
   72.1923   38.0978   39.2022 O   0  0  0  0  0  0  0  0  0  0  0  0
   74.5803   38.1511   39.0574 C   0  0  0  0  0  0  0  0  0  0  0  0
   75.6580   38.8999   39.8212 C   0  0  0  0  0  0  0  0  0  0  0  0
   79.5536   41.7606   44.5114 H   0  0  0  0  0  0  0  0  0  0  0  0
   78.3238   40.7827   43.7760 H   0  0  0  0  0  0  0  0  0  0  0  0
   78.9007   44.6449   39.3970 H   0  0  0  0  0  0  0  0  0  0  0  0
   80.3711   45.2061   41.3345 H   0  0  0  0  0  0  0  0  0  0  0  0
   80.3423   43.8363   43.3716 H   0  0  0  0  0  0  0  0  0  0  0  0
   75.7609   40.4739   38.3532 H   0  0  0  0  0  0  0  0  0  0  0  0
   72.2779   40.4910   39.7803 H   0  0  0  0  0  0  0  0  0  0  0  0
   74.5640   37.1032   39.3742 H   0  0  0  0  0  0  0  0  0  0  0  0
   74.7689   38.1765   37.9797 H   0  0  0  0  0  0  0  0  0  0  0  0
   75.4728   38.7726   40.8917 H   0  0  0  0  0  0  0  0  0  0  0  0
   76.6425   38.4681   39.6142 H   0  0  0  0  0  0  0  0  0  0  0  0
  1  2  1  0  0  0  0
  1 21  1  0  0  0  0
  1 22  1  0  0  0  0
  2  3  1  0  0  0  0
  2 12  2  0  0  0  0
  3  9  2  0  0  0  0
  3  4  1  0  0  0  0
  4  5  2  0  0  0  0
  4  6  1  0  0  0  0
  6  7  1  0  0  0  0
 13  6  1  0  0  0  0
  7  8  2  0  0  0  0
  7  9  1  0  0  0  0
  9 10  1  0  0  0  0
 10 23  1  0  0  0  0
 10 11  2  0  0  0  0
 11 12  1  0  0  0  0
 11 24  1  0  0  0  0
 12 25  1  0  0  0  0
 13 26  1  0  0  0  0
 13 14  1  0  0  0  0
 13 20  1  0  0  0  0
 14 15  2  0  0  0  0
 14 16  1  0  0  0  0
 16 27  1  0  0  0  0
 16 17  1  0  0  0  0
 17 18  2  0  0  0  0
 17 19  1  0  0  0  0
 19 28  1  0  0  0  0
 19 29  1  0  0  0  0
 19 20  1  0  0  0  0
 20 30  1  0  0  0  0
 20 31  1  0  0  0  0
M  ZZC   1 n1
M  ZZC   2 c1
M  ZZC   3 c2
M  ZZC   4 c3
M  ZZC   5 o1
M  ZZC   6 n2
M  ZZC   7 c4
M  ZZC   8 o2
M  ZZC   9 c5
M  ZZC  10 c6
M  ZZC  11 c7
M  ZZC  12 c8
M  ZZC  13 c9
M  ZZC  14 c10
M  ZZC  15 o3
M  ZZC  16 n3
M  ZZC  17 c11
M  ZZC  18 o4
M  ZZC  19 c12
M  ZZC  20 c13
M  ZZC  21 h11
M  ZZC  22 h12
M  ZZC  23 h61
M  ZZC  24 h71
M  ZZC  25 h81
M  ZZC  26 h91
M  ZZC  27 h31
M  ZZC  28 h121
M  ZZC  29 h122
M  ZZC  30 h131
M  ZZC  31 h132
M  ZZM   1 40
M  ZZI   1 224
M  ZZM   2 37
M  ZZI   2 124
M  ZZM   3 37
M  ZZI   3 124
M  ZZM   4 3
M  ZZI   4 121
M  ZZM   5 7
M  ZZI   5 81
M  ZZM   6 10
M  ZZI   6 192
M  ZZM   7 3
M  ZZI   7 121
M  ZZM   8 7
M  ZZI   8 81
M  ZZM   9 37
M  ZZI   9 124
M  ZZM  10 37
M  ZZI  10 125
M  ZZM  11 37
M  ZZI  11 125
M  ZZM  12 37
M  ZZI  12 125
M  ZZM  13 1
M  ZZI  13 113
M  ZZM  14 3
M  ZZI  14 121
M  ZZM  15 7
M  ZZI  15 81
M  ZZM  16 10
M  ZZI  16 191
M  ZZM  17 3
M  ZZI  17 121
M  ZZM  18 7
M  ZZI  18 81
M  ZZM  19 1
M  ZZI  19 112
M  ZZM  20 1
M  ZZI  20 112
M  ZZM  21 28
M  ZZI  21 11
M  ZZM  22 28
M  ZZI  22 11
M  ZZM  23 5
M  ZZI  23 1
M  ZZM  24 5
M  ZZI  24 1
M  ZZM  25 5
M  ZZI  25 1
M  ZZM  26 5
M  ZZI  26 1
M  ZZM  27 28
M  ZZI  27 11
M  ZZM  28 5
M  ZZI  28 1
M  ZZM  29 5
M  ZZI  29 1
M  ZZM  30 5
M  ZZI  30 1
M  ZZM  31 5
M  ZZI  31 1
M  END
> <IX>
1

> <NAME>
Cereblon_5EU1_5.pdb

> <Score>
-18.532307

> <Natom>
31

> <Nflex>
1

> <Hbond>
-3.673281

> <Hphob>
-3.607501

> <VwInt>
-24.348067

> <Dsolv>
15.147862

> <SolEl>
6.892947

> <Eintl>
1.69324

> <RecConf>
ND

> <projPath>
Cereblon_maps/

> <NAME_>
Cereblon_5EU1_5.pdb

$$$$
