Cereblon_6NY4_12.pdb
  MOLSOFT 04032206293D

 30 32  0  0  1  0  0  0  0  0999 V2000
   78.9613   42.3499   42.8083 C   0  0  0  0  0  0  0  0  0  0  0  0
   78.1551   42.0569   41.7211 C   0  0  0  0  0  0  0  0  0  0  0  0
   78.1627   42.8633   40.6137 C   0  0  0  0  0  0  0  0  0  0  0  0
   77.2331   42.3026   39.6255 C   0  0  0  0  0  0  0  0  0  0  0  0
   77.0138   42.7701   38.5154 O   0  0  0  0  0  0  0  0  0  0  0  0
   76.7087   41.1574   40.1931 N   0  0  0  0  0  0  0  0  0  0  0  0
   75.6929   40.3317   39.5353 C   0  0  2  0  0  0  0  0  0  0  0  0
   74.3106   40.9170   39.7960 C   0  0  0  0  0  0  0  0  0  0  0  0
   74.1236   42.1050   40.0022 O   0  0  0  0  0  0  0  0  0  0  0  0
   73.2549   40.0427   39.7121 N   0  0  0  0  0  0  0  0  0  0  0  0
   73.2846   38.6947   39.4543 C   0  0  0  0  0  0  0  0  0  0  0  0
   72.2635   38.0303   39.3882 O   0  0  0  0  0  0  0  0  0  0  0  0
   74.6473   38.0965   39.2069 C   0  0  0  0  0  0  0  0  0  0  0  0
   75.7301   38.8641   39.9440 C   0  0  0  0  0  0  0  0  0  0  0  0
   77.2306   40.9120   41.5277 C   0  0  0  0  0  0  0  0  0  0  0  0
   78.9676   43.9804   40.5063 C   0  0  0  0  0  0  0  0  0  0  0  0
   79.7887   44.2715   41.5868 C   0  0  0  0  0  0  0  0  0  0  0  0
   79.7844   43.4664   42.7239 C   0  0  0  0  0  0  0  0  0  0  0  0
   78.9610   41.7240   43.6961 H   0  0  0  0  0  0  0  0  0  0  0  0
   75.8562   40.4224   38.4592 H   0  0  0  0  0  0  0  0  0  0  0  0
   72.3379   40.4473   39.8552 H   0  0  0  0  0  0  0  0  0  0  0  0
   74.6389   37.0554   39.5451 H   0  0  0  0  0  0  0  0  0  0  0  0
   74.8252   38.1009   38.1269 H   0  0  0  0  0  0  0  0  0  0  0  0
   76.7116   38.4319   39.7226 H   0  0  0  0  0  0  0  0  0  0  0  0
   75.5750   38.7593   41.0226 H   0  0  0  0  0  0  0  0  0  0  0  0
   77.7716   39.9598   41.5418 H   0  0  0  0  0  0  0  0  0  0  0  0
   76.4205   40.9138   42.2598 H   0  0  0  0  0  0  0  0  0  0  0  0
   78.9551   44.5999   39.6168 H   0  0  0  0  0  0  0  0  0  0  0  0
   80.4359   45.1403   41.5488 H   0  0  0  0  0  0  0  0  0  0  0  0
   80.4343   43.7152   43.5577 H   0  0  0  0  0  0  0  0  0  0  0  0
  1 19  1  0  0  0  0
  1 18  2  0  0  0  0
  1  2  1  0  0  0  0
  2  3  2  0  0  0  0
  2 15  1  0  0  0  0
  3 16  1  0  0  0  0
  3  4  1  0  0  0  0
  4  6  1  0  0  0  0
  4  5  2  0  0  0  0
  6 15  1  0  0  0  0
  7  6  1  0  0  0  0
  7 20  1  0  0  0  0
  7  8  1  0  0  0  0
  7 14  1  0  0  0  0
  8  9  2  0  0  0  0
  8 10  1  0  0  0  0
 10 21  1  0  0  0  0
 10 11  1  0  0  0  0
 11 12  2  0  0  0  0
 11 13  1  0  0  0  0
 13 22  1  0  0  0  0
 13 23  1  0  0  0  0
 13 14  1  0  0  0  0
 14 24  1  0  0  0  0
 14 25  1  0  0  0  0
 15 26  1  0  0  0  0
 15 27  1  0  0  0  0
 16 17  2  0  0  0  0
 16 28  1  0  0  0  0
 17 18  1  0  0  0  0
 17 29  1  0  0  0  0
 18 30  1  0  0  0  0
M  ZZC   1 c1
M  ZZC   2 c2
M  ZZC   3 c3
M  ZZC   4 c4
M  ZZC   5 o1
M  ZZC   6 n1
M  ZZC   7 c5
M  ZZC   8 c6
M  ZZC   9 o2
M  ZZC  10 n2
M  ZZC  11 c7
M  ZZC  12 o3
M  ZZC  13 c8
M  ZZC  14 c9
M  ZZC  15 c10
M  ZZC  16 c11
M  ZZC  17 c12
M  ZZC  18 c13
M  ZZC  19 h11
M  ZZC  20 h51
M  ZZC  21 h21
M  ZZC  22 h81
M  ZZC  23 h82
M  ZZC  24 h91
M  ZZC  25 h92
M  ZZC  26 h101
M  ZZC  27 h102
M  ZZC  28 h111
M  ZZC  29 h121
M  ZZC  30 h131
M  ZZM   1 37
M  ZZI   1 125
M  ZZM   2 37
M  ZZI   2 124
M  ZZM   3 37
M  ZZI   3 124
M  ZZM   4 3
M  ZZI   4 121
M  ZZM   5 7
M  ZZI   5 81
M  ZZM   6 10
M  ZZI   6 192
M  ZZM   7 1
M  ZZI   7 113
M  ZZM   8 3
M  ZZI   8 121
M  ZZM   9 7
M  ZZI   9 81
M  ZZM  10 10
M  ZZI  10 191
M  ZZM  11 3
M  ZZI  11 121
M  ZZM  12 7
M  ZZI  12 81
M  ZZM  13 1
M  ZZI  13 112
M  ZZM  14 1
M  ZZI  14 112
M  ZZM  15 1
M  ZZI  15 112
M  ZZM  16 37
M  ZZI  16 125
M  ZZM  17 37
M  ZZI  17 125
M  ZZM  18 37
M  ZZI  18 125
M  ZZM  19 5
M  ZZI  19 1
M  ZZM  20 5
M  ZZI  20 1
M  ZZM  21 28
M  ZZI  21 11
M  ZZM  22 5
M  ZZI  22 1
M  ZZM  23 5
M  ZZI  23 1
M  ZZM  24 5
M  ZZI  24 1
M  ZZM  25 5
M  ZZI  25 1
M  ZZM  26 5
M  ZZI  26 1
M  ZZM  27 5
M  ZZI  27 1
M  ZZM  28 5
M  ZZI  28 1
M  ZZM  29 5
M  ZZI  29 1
M  ZZM  30 5
M  ZZI  30 1
M  END
> <IX>
1

> <NAME>
Cereblon_6NY4_12.pdb

> <Score>
-18.706497

> <Natom>
30

> <Nflex>
1

> <Hbond>
-3.21384

> <Hphob>
-3.854467

> <VwInt>
-21.115861

> <Dsolv>
10.921089

> <SolEl>
5.620179

> <Eintl>
1.037897

> <RecConf>
ND

> <projPath>
Cereblon_maps/

> <NAME_>
Cereblon_6NY4_12.pdb

$$$$
