Cereblon_2VTI_19.pdb
  MOLSOFT 04032206203D

 29 31  0  0  1  0  0  0  0  0999 V2000
   78.9953   42.4863   42.6779 C   0  0  0  0  0  0  0  0  0  0  0  0
   78.1845   42.1890   41.5971 C   0  0  0  0  0  0  0  0  0  0  0  0
   77.2676   41.0711   41.4084 C   0  0  0  0  0  0  0  0  0  0  0  0
   77.0856   40.2095   42.2548 O   0  0  0  0  0  0  0  0  0  0  0  0
   76.7300   41.2146   40.1426 N   0  0  0  0  0  0  0  0  0  0  0  0
   77.2247   42.3445   39.5229 C   0  0  0  0  0  0  0  0  0  0  0  0
   76.9875   42.7661   38.3983 O   0  0  0  0  0  0  0  0  0  0  0  0
   78.1593   42.9539   40.4696 C   0  0  0  0  0  0  0  0  0  0  0  0
   78.9550   44.0732   40.3328 C   0  0  0  0  0  0  0  0  0  0  0  0
   79.7926   44.3827   41.3987 C   0  0  0  0  0  0  0  0  0  0  0  0
   79.8115   43.6043   42.5564 C   0  0  0  0  0  0  0  0  0  0  0  0
   75.7177   40.3641   39.5102 C   0  0  2  0  0  0  0  0  0  0  0  0
   74.3389   40.9353   39.8002 C   0  0  0  0  0  0  0  0  0  0  0  0
   74.1555   42.1216   40.0171 O   0  0  0  0  0  0  0  0  0  0  0  0
   73.2863   40.0562   39.7236 N   0  0  0  0  0  0  0  0  0  0  0  0
   73.3212   38.7109   39.4502 C   0  0  0  0  0  0  0  0  0  0  0  0
   72.3039   38.0399   39.3918 O   0  0  0  0  0  0  0  0  0  0  0  0
   74.6847   38.1272   39.1718 C   0  0  0  0  0  0  0  0  0  0  0  0
   75.7690   38.8926   39.9095 C   0  0  0  0  0  0  0  0  0  0  0  0
   79.0027   41.8696   43.5724 H   0  0  0  0  0  0  0  0  0  0  0  0
   78.9261   44.6767   39.4334 H   0  0  0  0  0  0  0  0  0  0  0  0
   80.4370   45.2518   41.3348 H   0  0  0  0  0  0  0  0  0  0  0  0
   80.4719   43.8755   43.3752 H   0  0  0  0  0  0  0  0  0  0  0  0
   75.8558   40.4538   38.4307 H   0  0  0  0  0  0  0  0  0  0  0  0
   72.3689   40.4520   39.8876 H   0  0  0  0  0  0  0  0  0  0  0  0
   74.6879   37.0805   39.4921 H   0  0  0  0  0  0  0  0  0  0  0  0
   74.8452   38.1511   38.0895 H   0  0  0  0  0  0  0  0  0  0  0  0
   76.7536   38.4696   39.6853 H   0  0  0  0  0  0  0  0  0  0  0  0
   75.6055   38.7730   40.9842 H   0  0  0  0  0  0  0  0  0  0  0  0
  1 20  1  0  0  0  0
  1  2  1  0  0  0  0
  1 11  2  0  0  0  0
  2  3  1  0  0  0  0
  2  8  2  0  0  0  0
  3  4  2  0  0  0  0
  3  5  1  0  0  0  0
  5  6  1  0  0  0  0
 12  5  1  0  0  0  0
  6  7  2  0  0  0  0
  6  8  1  0  0  0  0
  8  9  1  0  0  0  0
  9 21  1  0  0  0  0
  9 10  2  0  0  0  0
 10 22  1  0  0  0  0
 10 11  1  0  0  0  0
 11 23  1  0  0  0  0
 12 24  1  0  0  0  0
 12 13  1  0  0  0  0
 12 19  1  0  0  0  0
 13 14  2  0  0  0  0
 13 15  1  0  0  0  0
 15 25  1  0  0  0  0
 15 16  1  0  0  0  0
 16 17  2  0  0  0  0
 16 18  1  0  0  0  0
 18 26  1  0  0  0  0
 18 27  1  0  0  0  0
 18 19  1  0  0  0  0
 19 28  1  0  0  0  0
 19 29  1  0  0  0  0
M  ZZC   1 c1
M  ZZC   2 c2
M  ZZC   3 c3
M  ZZC   4 o1
M  ZZC   5 n1
M  ZZC   6 c4
M  ZZC   7 o2
M  ZZC   8 c5
M  ZZC   9 c6
M  ZZC  10 c7
M  ZZC  11 c8
M  ZZC  12 c9
M  ZZC  13 c10
M  ZZC  14 o3
M  ZZC  15 n2
M  ZZC  16 c11
M  ZZC  17 o4
M  ZZC  18 c12
M  ZZC  19 c13
M  ZZC  20 h11
M  ZZC  21 h61
M  ZZC  22 h71
M  ZZC  23 h81
M  ZZC  24 h91
M  ZZC  25 h21
M  ZZC  26 h121
M  ZZC  27 h122
M  ZZC  28 h131
M  ZZC  29 h132
M  ZZM   1 37
M  ZZI   1 125
M  ZZM   2 37
M  ZZI   2 124
M  ZZM   3 3
M  ZZI   3 121
M  ZZM   4 7
M  ZZI   4 81
M  ZZM   5 10
M  ZZI   5 192
M  ZZM   6 3
M  ZZI   6 121
M  ZZM   7 7
M  ZZI   7 81
M  ZZM   8 37
M  ZZI   8 124
M  ZZM   9 37
M  ZZI   9 125
M  ZZM  10 37
M  ZZI  10 125
M  ZZM  11 37
M  ZZI  11 125
M  ZZM  12 1
M  ZZI  12 113
M  ZZM  13 3
M  ZZI  13 121
M  ZZM  14 7
M  ZZI  14 81
M  ZZM  15 10
M  ZZI  15 191
M  ZZM  16 3
M  ZZI  16 121
M  ZZM  17 7
M  ZZI  17 81
M  ZZM  18 1
M  ZZI  18 112
M  ZZM  19 1
M  ZZI  19 112
M  ZZM  20 5
M  ZZI  20 1
M  ZZM  21 5
M  ZZI  21 1
M  ZZM  22 5
M  ZZI  22 1
M  ZZM  23 5
M  ZZI  23 1
M  ZZM  24 5
M  ZZI  24 1
M  ZZM  25 28
M  ZZI  25 11
M  ZZM  26 5
M  ZZI  26 1
M  ZZM  27 5
M  ZZI  27 1
M  ZZM  28 5
M  ZZI  28 1
M  ZZM  29 5
M  ZZI  29 1
M  END
> <IX>
1

> <NAME>
Cereblon_2VTI_19.pdb

> <Score>
-19.246705

> <Natom>
29

> <Nflex>
1

> <Hbond>
-3.363738

> <Hphob>
-3.506191

> <VwInt>
-22.668194

> <Dsolv>
12.07712

> <SolEl>
5.671917

> <Eintl>
1.46598

> <RecConf>
ND

> <projPath>
Cereblon_maps/

> <NAME_>
Cereblon_2VTI_19.pdb

$$$$
