Cereblon_6YBK_4.pdb
  MOLSOFT 04032206303D

 31 33  0  0  1  0  0  0  0  0999 V2000
   78.4101   43.9441   39.9654 N   0  0  0  0  0  0  0  0  0  0  0  0
   78.0522   42.8193   40.7254 C   0  0  0  0  0  0  0  0  0  0  0  0
   77.1839   41.8460   40.2526 C   0  0  0  0  0  0  0  0  0  0  0  0
   76.3710   41.8267   39.0387 C   0  0  0  0  0  0  0  0  0  0  0  0
   76.4646   42.6371   38.1263 O   0  0  0  0  0  0  0  0  0  0  0  0
   75.5027   40.7611   39.1698 N   0  0  0  0  0  0  0  0  0  0  0  0
   75.8325   39.9980   40.2707 C   0  0  0  0  0  0  0  0  0  0  0  0
   75.3649   38.9361   40.6539 O   0  0  0  0  0  0  0  0  0  0  0  0
   76.8771   40.7342   40.9795 C   0  0  0  0  0  0  0  0  0  0  0  0
   77.4398   40.4802   42.2162 C   0  0  0  0  0  0  0  0  0  0  0  0
   78.3354   41.4236   42.7010 C   0  0  0  0  0  0  0  0  0  0  0  0
   78.6444   42.5655   41.9606 C   0  0  0  0  0  0  0  0  0  0  0  0
   74.2549   40.6743   38.3988 C   0  0  2  0  0  0  0  0  0  0  0  0
   73.2313   41.4659   39.1936 C   0  0  0  0  0  0  0  0  0  0  0  0
   73.5624   42.3146   40.0060 O   0  0  0  0  0  0  0  0  0  0  0  0
   71.9116   41.2299   38.8960 N   0  0  0  0  0  0  0  0  0  0  0  0
   71.3894   40.2707   38.0626 C   0  0  0  0  0  0  0  0  0  0  0  0
   70.1841   40.1680   37.8897 O   0  0  0  0  0  0  0  0  0  0  0  0
   72.4008   39.3969   37.3500 C   0  0  0  0  0  0  0  0  0  0  0  0
   73.6911   39.2766   38.1509 C   0  0  0  0  0  0  0  0  0  0  0  0
   78.7589   44.7517   40.4761 H   0  0  0  0  0  0  0  0  0  0  0  0
   77.8626   44.1243   39.1240 H   0  0  0  0  0  0  0  0  0  0  0  0
   77.1810   39.5988   42.7944 H   0  0  0  0  0  0  0  0  0  0  0  0
   78.7964   41.2740   43.6730 H   0  0  0  0  0  0  0  0  0  0  0  0
   79.3509   43.2806   42.3698 H   0  0  0  0  0  0  0  0  0  0  0  0
   74.3959   41.2092   37.4520 H   0  0  0  0  0  0  0  0  0  0  0  0
   71.2450   41.8289   39.3670 H   0  0  0  0  0  0  0  0  0  0  0  0
   71.9606   38.4050   37.2065 H   0  0  0  0  0  0  0  0  0  0  0  0
   72.5930   39.8300   36.3623 H   0  0  0  0  0  0  0  0  0  0  0  0
   73.4666   38.7670   39.0940 H   0  0  0  0  0  0  0  0  0  0  0  0
   74.4112   38.6525   37.6145 H   0  0  0  0  0  0  0  0  0  0  0  0
  1  2  1  0  0  0  0
  1 21  1  0  0  0  0
  1 22  1  0  0  0  0
  2  3  1  0  0  0  0
  2 12  2  0  0  0  0
  3  9  2  0  0  0  0
  3  4  1  0  0  0  0
  4  5  2  0  0  0  0
  4  6  1  0  0  0  0
  6  7  1  0  0  0  0
 13  6  1  0  0  0  0
  7  8  2  0  0  0  0
  7  9  1  0  0  0  0
  9 10  1  0  0  0  0
 10 23  1  0  0  0  0
 10 11  2  0  0  0  0
 11 12  1  0  0  0  0
 11 24  1  0  0  0  0
 12 25  1  0  0  0  0
 13 26  1  0  0  0  0
 13 14  1  0  0  0  0
 13 20  1  0  0  0  0
 14 15  2  0  0  0  0
 14 16  1  0  0  0  0
 16 27  1  0  0  0  0
 16 17  1  0  0  0  0
 17 18  2  0  0  0  0
 17 19  1  0  0  0  0
 19 28  1  0  0  0  0
 19 29  1  0  0  0  0
 19 20  1  0  0  0  0
 20 30  1  0  0  0  0
 20 31  1  0  0  0  0
M  ZZC   1 n1
M  ZZC   2 c1
M  ZZC   3 c2
M  ZZC   4 c3
M  ZZC   5 o1
M  ZZC   6 n2
M  ZZC   7 c4
M  ZZC   8 o2
M  ZZC   9 c5
M  ZZC  10 c6
M  ZZC  11 c7
M  ZZC  12 c8
M  ZZC  13 c9
M  ZZC  14 c10
M  ZZC  15 o3
M  ZZC  16 n3
M  ZZC  17 c11
M  ZZC  18 o4
M  ZZC  19 c12
M  ZZC  20 c13
M  ZZC  21 h11
M  ZZC  22 h12
M  ZZC  23 h61
M  ZZC  24 h71
M  ZZC  25 h81
M  ZZC  26 h91
M  ZZC  27 h31
M  ZZC  28 h121
M  ZZC  29 h122
M  ZZC  30 h131
M  ZZC  31 h132
M  ZZM   1 40
M  ZZI   1 224
M  ZZM   2 37
M  ZZI   2 124
M  ZZM   3 37
M  ZZI   3 124
M  ZZM   4 3
M  ZZI   4 121
M  ZZM   5 7
M  ZZI   5 81
M  ZZM   6 10
M  ZZI   6 192
M  ZZM   7 3
M  ZZI   7 121
M  ZZM   8 7
M  ZZI   8 81
M  ZZM   9 37
M  ZZI   9 124
M  ZZM  10 37
M  ZZI  10 125
M  ZZM  11 37
M  ZZI  11 125
M  ZZM  12 37
M  ZZI  12 125
M  ZZM  13 1
M  ZZI  13 113
M  ZZM  14 3
M  ZZI  14 121
M  ZZM  15 7
M  ZZI  15 81
M  ZZM  16 10
M  ZZI  16 191
M  ZZM  17 3
M  ZZI  17 121
M  ZZM  18 7
M  ZZI  18 81
M  ZZM  19 1
M  ZZI  19 112
M  ZZM  20 1
M  ZZI  20 112
M  ZZM  21 28
M  ZZI  21 11
M  ZZM  22 28
M  ZZI  22 11
M  ZZM  23 5
M  ZZI  23 1
M  ZZM  24 5
M  ZZI  24 1
M  ZZM  25 5
M  ZZI  25 1
M  ZZM  26 5
M  ZZI  26 1
M  ZZM  27 28
M  ZZI  27 11
M  ZZM  28 5
M  ZZI  28 1
M  ZZM  29 5
M  ZZI  29 1
M  ZZM  30 5
M  ZZI  30 1
M  ZZM  31 5
M  ZZI  31 1
M  END
> <IX>
1

> <NAME>
Cereblon_6YBK_4.pdb

> <Score>
-16.687477

> <Natom>
31

> <Nflex>
1

> <Hbond>
-4.803598

> <Hphob>
-3.512005

> <VwInt>
-22.983782

> <Dsolv>
17.644501

> <SolEl>
5.396381

> <Eintl>
5.679105

> <RecConf>
ND

> <projPath>
Cereblon_maps/

> <NAME_>
Cereblon_6YBK_4.pdb

$$$$
