Cereblon_6NY4_2.pdb
  MOLSOFT 04032206293D

 30 32  0  0  1  0  0  0  0  0999 V2000
   77.8403   41.3686   42.1549 C   0  0  0  0  0  0  0  0  0  0  0  0
   77.1539   41.3713   40.9501 C   0  0  0  0  0  0  0  0  0  0  0  0
   77.4106   42.3325   40.0100 C   0  0  0  0  0  0  0  0  0  0  0  0
   76.5259   42.0980   38.8621 C   0  0  0  0  0  0  0  0  0  0  0  0
   76.5268   42.7586   37.8329 O   0  0  0  0  0  0  0  0  0  0  0  0
   75.7133   41.0300   39.1953 N   0  0  0  0  0  0  0  0  0  0  0  0
   74.4214   40.7721   38.5363 C   0  0  2  0  0  0  0  0  0  0  0  0
   73.3433   41.5458   39.2722 C   0  0  0  0  0  0  0  0  0  0  0  0
   73.6034   42.4383   40.0598 O   0  0  0  0  0  0  0  0  0  0  0  0
   72.0468   41.2133   38.9651 N   0  0  0  0  0  0  0  0  0  0  0  0
   71.6034   40.1492   38.2188 C   0  0  0  0  0  0  0  0  0  0  0  0
   70.4170   40.0006   37.9634 O   0  0  0  0  0  0  0  0  0  0  0  0
   72.6788   39.2128   37.7014 C   0  0  0  0  0  0  0  0  0  0  0  0
   73.9773   39.3155   38.4971 C   0  0  0  0  0  0  0  0  0  0  0  0
   76.0870   40.4538   40.4732 C   0  0  0  0  0  0  0  0  0  0  0  0
   78.3518   43.3316   40.1956 C   0  0  0  0  0  0  0  0  0  0  0  0
   79.0571   43.3229   41.3923 C   0  0  0  0  0  0  0  0  0  0  0  0
   78.7969   42.3556   42.3627 C   0  0  0  0  0  0  0  0  0  0  0  0
   77.6410   40.6224   42.9184 H   0  0  0  0  0  0  0  0  0  0  0  0
   74.4671   41.1965   37.5267 H   0  0  0  0  0  0  0  0  0  0  0  0
   71.3368   41.8261   39.3469 H   0  0  0  0  0  0  0  0  0  0  0  0
   72.2980   38.1879   37.7508 H   0  0  0  0  0  0  0  0  0  0  0  0
   72.8556   39.4557   36.6479 H   0  0  0  0  0  0  0  0  0  0  0  0
   73.8159   38.9365   39.5132 H   0  0  0  0  0  0  0  0  0  0  0  0
   74.7461   38.6824   38.0454 H   0  0  0  0  0  0  0  0  0  0  0  0
   76.4499   39.4314   40.3227 H   0  0  0  0  0  0  0  0  0  0  0  0
   75.2309   40.4760   41.1411 H   0  0  0  0  0  0  0  0  0  0  0  0
   78.5310   44.0905   39.4412 H   0  0  0  0  0  0  0  0  0  0  0  0
   79.8048   44.0867   41.5808 H   0  0  0  0  0  0  0  0  0  0  0  0
   79.3487   42.3738   43.2976 H   0  0  0  0  0  0  0  0  0  0  0  0
  1 19  1  0  0  0  0
  1 18  2  0  0  0  0
  1  2  1  0  0  0  0
  2  3  2  0  0  0  0
  2 15  1  0  0  0  0
  3 16  1  0  0  0  0
  3  4  1  0  0  0  0
  4  6  1  0  0  0  0
  4  5  2  0  0  0  0
  6 15  1  0  0  0  0
  7  6  1  0  0  0  0
  7 20  1  0  0  0  0
  7  8  1  0  0  0  0
  7 14  1  0  0  0  0
  8  9  2  0  0  0  0
  8 10  1  0  0  0  0
 10 21  1  0  0  0  0
 10 11  1  0  0  0  0
 11 12  2  0  0  0  0
 11 13  1  0  0  0  0
 13 22  1  0  0  0  0
 13 23  1  0  0  0  0
 13 14  1  0  0  0  0
 14 24  1  0  0  0  0
 14 25  1  0  0  0  0
 15 26  1  0  0  0  0
 15 27  1  0  0  0  0
 16 17  2  0  0  0  0
 16 28  1  0  0  0  0
 17 18  1  0  0  0  0
 17 29  1  0  0  0  0
 18 30  1  0  0  0  0
M  ZZC   1 c1
M  ZZC   2 c2
M  ZZC   3 c3
M  ZZC   4 c4
M  ZZC   5 o1
M  ZZC   6 n1
M  ZZC   7 c5
M  ZZC   8 c6
M  ZZC   9 o2
M  ZZC  10 n2
M  ZZC  11 c7
M  ZZC  12 o3
M  ZZC  13 c8
M  ZZC  14 c9
M  ZZC  15 c10
M  ZZC  16 c11
M  ZZC  17 c12
M  ZZC  18 c13
M  ZZC  19 h11
M  ZZC  20 h51
M  ZZC  21 h21
M  ZZC  22 h81
M  ZZC  23 h82
M  ZZC  24 h91
M  ZZC  25 h92
M  ZZC  26 h101
M  ZZC  27 h102
M  ZZC  28 h111
M  ZZC  29 h121
M  ZZC  30 h131
M  ZZM   1 37
M  ZZI   1 125
M  ZZM   2 37
M  ZZI   2 124
M  ZZM   3 37
M  ZZI   3 124
M  ZZM   4 3
M  ZZI   4 121
M  ZZM   5 7
M  ZZI   5 81
M  ZZM   6 10
M  ZZI   6 192
M  ZZM   7 1
M  ZZI   7 113
M  ZZM   8 3
M  ZZI   8 121
M  ZZM   9 7
M  ZZI   9 81
M  ZZM  10 10
M  ZZI  10 191
M  ZZM  11 3
M  ZZI  11 121
M  ZZM  12 7
M  ZZI  12 81
M  ZZM  13 1
M  ZZI  13 112
M  ZZM  14 1
M  ZZI  14 112
M  ZZM  15 1
M  ZZI  15 112
M  ZZM  16 37
M  ZZI  16 125
M  ZZM  17 37
M  ZZI  17 125
M  ZZM  18 37
M  ZZI  18 125
M  ZZM  19 5
M  ZZI  19 1
M  ZZM  20 5
M  ZZI  20 1
M  ZZM  21 28
M  ZZI  21 11
M  ZZM  22 5
M  ZZI  22 1
M  ZZM  23 5
M  ZZI  23 1
M  ZZM  24 5
M  ZZI  24 1
M  ZZM  25 5
M  ZZI  25 1
M  ZZM  26 5
M  ZZI  26 1
M  ZZM  27 5
M  ZZI  27 1
M  ZZM  28 5
M  ZZI  28 1
M  ZZM  29 5
M  ZZI  29 1
M  ZZM  30 5
M  ZZI  30 1
M  END
> <IX>
1

> <NAME>
Cereblon_6NY4_2.pdb

> <Score>
-15.585126

> <Natom>
30

> <Nflex>
1

> <Hbond>
-4.172999

> <Hphob>
-3.698635

> <VwInt>
-19.53256

> <Dsolv>
13.764263

> <SolEl>
6.162624

> <Eintl>
3.321131

> <RecConf>
ND

> <projPath>
Cereblon_maps/

> <NAME_>
Cereblon_6NY4_2.pdb

$$$$
