Cereblon_3MXF_37.pdb
  MOLSOFT 04032206223D

 29 31  0  0  1  0  0  0  0  0999 V2000
   76.9784   39.3623   41.1228 C   0  0  0  0  0  0  0  0  0  0  0  0
   76.3121   40.4878   40.6542 C   0  0  0  0  0  0  0  0  0  0  0  0
   75.3227   40.2812   39.7096 C   0  0  0  0  0  0  0  0  0  0  0  0
   74.4526   41.2464   39.0446 C   0  0  0  0  0  0  0  0  0  0  0  0
   74.4446   42.4314   39.3400 O   0  0  0  0  0  0  0  0  0  0  0  0
   73.6899   40.5317   38.1379 N   0  0  0  0  0  0  0  0  0  0  0  0
   73.9549   39.1809   38.2453 C   0  0  0  0  0  0  0  0  0  0  0  0
   73.4489   38.2403   37.6507 O   0  0  0  0  0  0  0  0  0  0  0  0
   75.0117   39.0412   39.2455 C   0  0  0  0  0  0  0  0  0  0  0  0
   75.6580   37.9066   39.7006 C   0  0  0  0  0  0  0  0  0  0  0  0
   76.6550   38.0895   40.6530 C   0  0  0  0  0  0  0  0  0  0  0  0
   72.6595   41.0703   37.2373 C   0  0  1  0  0  0  0  0  0  0  0  0
   71.3522   41.2746   37.9960 C   0  0  0  0  0  0  0  0  0  0  0  0
   71.0380   40.6184   38.9782 O   0  0  0  0  0  0  0  0  0  0  0  0
   70.4833   42.1965   37.4583 N   0  0  0  0  0  0  0  0  0  0  0  0
   70.6735   43.0435   36.3987 C   0  0  0  0  0  0  0  0  0  0  0  0
   69.8490   43.8983   36.1130 O   0  0  0  0  0  0  0  0  0  0  0  0
   71.9438   42.8320   35.6149 C   0  0  0  0  0  0  0  0  0  0  0  0
   73.0727   42.3504   36.5134 C   0  0  0  0  0  0  0  0  0  0  0  0
   77.7632   39.4776   41.8649 H   0  0  0  0  0  0  0  0  0  0  0  0
   76.5679   41.4819   41.0080 H   0  0  0  0  0  0  0  0  0  0  0  0
   75.4049   36.9185   39.3270 H   0  0  0  0  0  0  0  0  0  0  0  0
   77.1927   37.2272   41.0354 H   0  0  0  0  0  0  0  0  0  0  0  0
   72.4482   40.2995   36.4868 H   0  0  0  0  0  0  0  0  0  0  0  0
   69.6133   42.3260   37.9537 H   0  0  0  0  0  0  0  0  0  0  0  0
   71.7417   42.1140   34.8124 H   0  0  0  0  0  0  0  0  0  0  0  0
   72.2204   43.7841   35.1575 H   0  0  0  0  0  0  0  0  0  0  0  0
   73.3195   43.1427   37.2253 H   0  0  0  0  0  0  0  0  0  0  0  0
   73.9746   42.1735   35.9187 H   0  0  0  0  0  0  0  0  0  0  0  0
  1 20  1  0  0  0  0
  1  2  1  0  0  0  0
  1 11  2  0  0  0  0
  2 21  1  0  0  0  0
  2  3  2  0  0  0  0
  3  4  1  0  0  0  0
  3  9  1  0  0  0  0
  4  5  2  0  0  0  0
  4  6  1  0  0  0  0
  6  7  1  0  0  0  0
 12  6  1  0  0  0  0
  7  8  2  0  0  0  0
  7  9  1  0  0  0  0
  9 10  2  0  0  0  0
 10 22  1  0  0  0  0
 10 11  1  0  0  0  0
 11 23  1  0  0  0  0
 12 24  1  0  0  0  0
 12 13  1  0  0  0  0
 12 19  1  0  0  0  0
 13 14  2  0  0  0  0
 13 15  1  0  0  0  0
 15 25  1  0  0  0  0
 15 16  1  0  0  0  0
 16 17  2  0  0  0  0
 16 18  1  0  0  0  0
 18 26  1  0  0  0  0
 18 27  1  0  0  0  0
 18 19  1  0  0  0  0
 19 28  1  0  0  0  0
 19 29  1  0  0  0  0
M  ZZC   1 c1
M  ZZC   2 c2
M  ZZC   3 c3
M  ZZC   4 c4
M  ZZC   5 o1
M  ZZC   6 n1
M  ZZC   7 c5
M  ZZC   8 o2
M  ZZC   9 c6
M  ZZC  10 c7
M  ZZC  11 c8
M  ZZC  12 c9
M  ZZC  13 c10
M  ZZC  14 o3
M  ZZC  15 n2
M  ZZC  16 c11
M  ZZC  17 o4
M  ZZC  18 c12
M  ZZC  19 c13
M  ZZC  20 h11
M  ZZC  21 h21
M  ZZC  22 h71
M  ZZC  23 h81
M  ZZC  24 h91
M  ZZC  25 h01
M  ZZC  26 h121
M  ZZC  27 h122
M  ZZC  28 h131
M  ZZC  29 h132
M  ZZM   1 37
M  ZZI   1 125
M  ZZM   2 37
M  ZZI   2 125
M  ZZM   3 37
M  ZZI   3 124
M  ZZM   4 3
M  ZZI   4 121
M  ZZM   5 7
M  ZZI   5 81
M  ZZM   6 10
M  ZZI   6 192
M  ZZM   7 3
M  ZZI   7 121
M  ZZM   8 7
M  ZZI   8 81
M  ZZM   9 37
M  ZZI   9 124
M  ZZM  10 37
M  ZZI  10 125
M  ZZM  11 37
M  ZZI  11 125
M  ZZM  12 1
M  ZZI  12 113
M  ZZM  13 3
M  ZZI  13 121
M  ZZM  14 7
M  ZZI  14 81
M  ZZM  15 10
M  ZZI  15 191
M  ZZM  16 3
M  ZZI  16 121
M  ZZM  17 7
M  ZZI  17 81
M  ZZM  18 1
M  ZZI  18 112
M  ZZM  19 1
M  ZZI  19 112
M  ZZM  20 5
M  ZZI  20 1
M  ZZM  21 5
M  ZZI  21 1
M  ZZM  22 5
M  ZZI  22 1
M  ZZM  23 5
M  ZZI  23 1
M  ZZM  24 5
M  ZZI  24 1
M  ZZM  25 28
M  ZZI  25 11
M  ZZM  26 5
M  ZZI  26 1
M  ZZM  27 5
M  ZZI  27 1
M  ZZM  28 5
M  ZZI  28 1
M  ZZM  29 5
M  ZZI  29 1
M  END
> <IX>
1

> <NAME>
Cereblon_3MXF_37.pdb

> <Score>
-20.418841

> <Natom>
29

> <Nflex>
1

> <Hbond>
-4.563243

> <Hphob>
-3.519375

> <VwInt>
-22.415503

> <Dsolv>
13.466913

> <SolEl>
7.360527

> <Eintl>
0.569192

> <RecConf>
ND

> <projPath>
Cereblon_maps/

> <NAME_>
Cereblon_3MXF_37.pdb

$$$$
