Cereblon_6NY4_9.pdb
  MOLSOFT 04032206293D

 30 32  0  0  1  0  0  0  0  0999 V2000
   78.9597   42.3464   42.8069 C   0  0  0  0  0  0  0  0  0  0  0  0
   78.1527   42.0541   41.7196 C   0  0  0  0  0  0  0  0  0  0  0  0
   78.1602   42.8613   40.6127 C   0  0  0  0  0  0  0  0  0  0  0  0
   77.2298   42.3018   39.6247 C   0  0  0  0  0  0  0  0  0  0  0  0
   77.0115   42.7692   38.5143 O   0  0  0  0  0  0  0  0  0  0  0  0
   76.7039   41.1574   40.1923 N   0  0  0  0  0  0  0  0  0  0  0  0
   75.6893   40.3313   39.5330 C   0  0  2  0  0  0  0  0  0  0  0  0
   74.3075   40.9190   39.7919 C   0  0  0  0  0  0  0  0  0  0  0  0
   74.1217   42.1067   40.0010 O   0  0  0  0  0  0  0  0  0  0  0  0
   73.2506   40.0466   39.7021 N   0  0  0  0  0  0  0  0  0  0  0  0
   73.2794   38.6980   39.4477 C   0  0  0  0  0  0  0  0  0  0  0  0
   72.2574   38.0350   39.3811 O   0  0  0  0  0  0  0  0  0  0  0  0
   74.6418   38.0973   39.2046 C   0  0  0  0  0  0  0  0  0  0  0  0
   75.7240   38.8641   39.9436 C   0  0  0  0  0  0  0  0  0  0  0  0
   77.2287   40.9089   41.5253 C   0  0  0  0  0  0  0  0  0  0  0  0
   78.9651   43.9787   40.5062 C   0  0  0  0  0  0  0  0  0  0  0  0
   79.7885   44.2680   41.5856 C   0  0  0  0  0  0  0  0  0  0  0  0
   79.7826   43.4631   42.7229 C   0  0  0  0  0  0  0  0  0  0  0  0
   78.9605   41.7192   43.6937 H   0  0  0  0  0  0  0  0  0  0  0  0
   75.8542   40.4200   38.4571 H   0  0  0  0  0  0  0  0  0  0  0  0
   72.3338   40.4528   39.8411 H   0  0  0  0  0  0  0  0  0  0  0  0
   74.6318   37.0571   39.5451 H   0  0  0  0  0  0  0  0  0  0  0  0
   74.8227   38.0985   38.1251 H   0  0  0  0  0  0  0  0  0  0  0  0
   75.5653   38.7614   41.0218 H   0  0  0  0  0  0  0  0  0  0  0  0
   76.7058   38.4312   39.7249 H   0  0  0  0  0  0  0  0  0  0  0  0
   77.7694   39.9565   41.5354 H   0  0  0  0  0  0  0  0  0  0  0  0
   76.4205   40.9089   42.2596 H   0  0  0  0  0  0  0  0  0  0  0  0
   78.9525   44.5990   39.6173 H   0  0  0  0  0  0  0  0  0  0  0  0
   80.4360   45.1366   41.5475 H   0  0  0  0  0  0  0  0  0  0  0  0
   80.4332   43.7103   43.5566 H   0  0  0  0  0  0  0  0  0  0  0  0
  1 19  1  0  0  0  0
  1 18  2  0  0  0  0
  1  2  1  0  0  0  0
  2  3  2  0  0  0  0
  2 15  1  0  0  0  0
  3 16  1  0  0  0  0
  3  4  1  0  0  0  0
  4  6  1  0  0  0  0
  4  5  2  0  0  0  0
  6 15  1  0  0  0  0
  7  6  1  0  0  0  0
  7 20  1  0  0  0  0
  7  8  1  0  0  0  0
  7 14  1  0  0  0  0
  8  9  2  0  0  0  0
  8 10  1  0  0  0  0
 10 21  1  0  0  0  0
 10 11  1  0  0  0  0
 11 12  2  0  0  0  0
 11 13  1  0  0  0  0
 13 22  1  0  0  0  0
 13 23  1  0  0  0  0
 13 14  1  0  0  0  0
 14 24  1  0  0  0  0
 14 25  1  0  0  0  0
 15 26  1  0  0  0  0
 15 27  1  0  0  0  0
 16 17  2  0  0  0  0
 16 28  1  0  0  0  0
 17 18  1  0  0  0  0
 17 29  1  0  0  0  0
 18 30  1  0  0  0  0
M  ZZC   1 c1
M  ZZC   2 c2
M  ZZC   3 c3
M  ZZC   4 c4
M  ZZC   5 o1
M  ZZC   6 n1
M  ZZC   7 c5
M  ZZC   8 c6
M  ZZC   9 o2
M  ZZC  10 n2
M  ZZC  11 c7
M  ZZC  12 o3
M  ZZC  13 c8
M  ZZC  14 c9
M  ZZC  15 c10
M  ZZC  16 c11
M  ZZC  17 c12
M  ZZC  18 c13
M  ZZC  19 h11
M  ZZC  20 h51
M  ZZC  21 h21
M  ZZC  22 h81
M  ZZC  23 h82
M  ZZC  24 h91
M  ZZC  25 h92
M  ZZC  26 h101
M  ZZC  27 h102
M  ZZC  28 h111
M  ZZC  29 h121
M  ZZC  30 h131
M  ZZM   1 37
M  ZZI   1 125
M  ZZM   2 37
M  ZZI   2 124
M  ZZM   3 37
M  ZZI   3 124
M  ZZM   4 3
M  ZZI   4 121
M  ZZM   5 7
M  ZZI   5 81
M  ZZM   6 10
M  ZZI   6 192
M  ZZM   7 1
M  ZZI   7 113
M  ZZM   8 3
M  ZZI   8 121
M  ZZM   9 7
M  ZZI   9 81
M  ZZM  10 10
M  ZZI  10 191
M  ZZM  11 3
M  ZZI  11 121
M  ZZM  12 7
M  ZZI  12 81
M  ZZM  13 1
M  ZZI  13 112
M  ZZM  14 1
M  ZZI  14 112
M  ZZM  15 1
M  ZZI  15 112
M  ZZM  16 37
M  ZZI  16 125
M  ZZM  17 37
M  ZZI  17 125
M  ZZM  18 37
M  ZZI  18 125
M  ZZM  19 5
M  ZZI  19 1
M  ZZM  20 5
M  ZZI  20 1
M  ZZM  21 28
M  ZZI  21 11
M  ZZM  22 5
M  ZZI  22 1
M  ZZM  23 5
M  ZZI  23 1
M  ZZM  24 5
M  ZZI  24 1
M  ZZM  25 5
M  ZZI  25 1
M  ZZM  26 5
M  ZZI  26 1
M  ZZM  27 5
M  ZZI  27 1
M  ZZM  28 5
M  ZZI  28 1
M  ZZM  29 5
M  ZZI  29 1
M  ZZM  30 5
M  ZZI  30 1
M  END
> <IX>
1

> <NAME>
Cereblon_6NY4_9.pdb

> <Score>
-18.740355

> <Natom>
30

> <Nflex>
1

> <Hbond>
-3.269759

> <Hphob>
-3.811081

> <VwInt>
-21.082629

> <Dsolv>
10.963743

> <SolEl>
5.621851

> <Eintl>
1.058265

> <RecConf>
ND

> <projPath>
Cereblon_maps/

> <NAME_>
Cereblon_6NY4_9.pdb

$$$$
