Cereblon_6NY4_4.pdb
  MOLSOFT 04032206293D

 30 32  0  0  1  0  0  0  0  0999 V2000
   77.6052   41.0880   42.0860 C   0  0  0  0  0  0  0  0  0  0  0  0
   76.9703   41.1499   40.8563 C   0  0  0  0  0  0  0  0  0  0  0  0
   77.2652   42.1543   39.9741 C   0  0  0  0  0  0  0  0  0  0  0  0
   76.4135   41.9868   38.7903 C   0  0  0  0  0  0  0  0  0  0  0  0
   76.4487   42.7002   37.7976 O   0  0  0  0  0  0  0  0  0  0  0  0
   75.5750   40.9187   39.0524 N   0  0  0  0  0  0  0  0  0  0  0  0
   74.2687   40.7552   38.3949 C   0  0  2  0  0  0  0  0  0  0  0  0
   73.2438   41.5330   39.2028 C   0  0  0  0  0  0  0  0  0  0  0  0
   73.5619   42.3846   40.0164 O   0  0  0  0  0  0  0  0  0  0  0  0
   71.9263   41.2528   38.9317 N   0  0  0  0  0  0  0  0  0  0  0  0
   71.4190   40.2412   38.1530 C   0  0  0  0  0  0  0  0  0  0  0  0
   70.2173   40.1257   37.9606 O   0  0  0  0  0  0  0  0  0  0  0  0
   72.4421   39.3193   37.5210 C   0  0  0  0  0  0  0  0  0  0  0  0
   73.7660   39.3209   38.2776 C   0  0  0  0  0  0  0  0  0  0  0  0
   75.9242   40.2575   40.2956 C   0  0  0  0  0  0  0  0  0  0  0  0
   78.1930   43.1458   40.2465 C   0  0  0  0  0  0  0  0  0  0  0  0
   78.8436   43.0807   41.4720 C   0  0  0  0  0  0  0  0  0  0  0  0
   78.5421   42.0696   42.3846 C   0  0  0  0  0  0  0  0  0  0  0  0
   77.3743   40.3065   42.8035 H   0  0  0  0  0  0  0  0  0  0  0  0
   74.3194   41.2379   37.4114 H   0  0  0  0  0  0  0  0  0  0  0  0
   71.2516   41.8626   39.3761 H   0  0  0  0  0  0  0  0  0  0  0  0
   72.0301   38.3054   37.5010 H   0  0  0  0  0  0  0  0  0  0  0  0
   72.5905   39.6420   36.4847 H   0  0  0  0  0  0  0  0  0  0  0  0
   73.6215   38.8809   39.2711 H   0  0  0  0  0  0  0  0  0  0  0  0
   74.4923   38.6905   37.7575 H   0  0  0  0  0  0  0  0  0  0  0  0
   76.3035   39.2530   40.0796 H   0  0  0  0  0  0  0  0  0  0  0  0
   75.0508   40.2165   40.9422 H   0  0  0  0  0  0  0  0  0  0  0  0
   78.4023   43.9411   39.5393 H   0  0  0  0  0  0  0  0  0  0  0  0
   79.5770   43.8386   41.7302 H   0  0  0  0  0  0  0  0  0  0  0  0
   79.0488   42.0481   43.3445 H   0  0  0  0  0  0  0  0  0  0  0  0
  1 19  1  0  0  0  0
  1 18  2  0  0  0  0
  1  2  1  0  0  0  0
  2  3  2  0  0  0  0
  2 15  1  0  0  0  0
  3 16  1  0  0  0  0
  3  4  1  0  0  0  0
  4  6  1  0  0  0  0
  4  5  2  0  0  0  0
  6 15  1  0  0  0  0
  7  6  1  0  0  0  0
  7 20  1  0  0  0  0
  7  8  1  0  0  0  0
  7 14  1  0  0  0  0
  8  9  2  0  0  0  0
  8 10  1  0  0  0  0
 10 21  1  0  0  0  0
 10 11  1  0  0  0  0
 11 12  2  0  0  0  0
 11 13  1  0  0  0  0
 13 22  1  0  0  0  0
 13 23  1  0  0  0  0
 13 14  1  0  0  0  0
 14 24  1  0  0  0  0
 14 25  1  0  0  0  0
 15 26  1  0  0  0  0
 15 27  1  0  0  0  0
 16 17  2  0  0  0  0
 16 28  1  0  0  0  0
 17 18  1  0  0  0  0
 17 29  1  0  0  0  0
 18 30  1  0  0  0  0
M  ZZC   1 c1
M  ZZC   2 c2
M  ZZC   3 c3
M  ZZC   4 c4
M  ZZC   5 o1
M  ZZC   6 n1
M  ZZC   7 c5
M  ZZC   8 c6
M  ZZC   9 o2
M  ZZC  10 n2
M  ZZC  11 c7
M  ZZC  12 o3
M  ZZC  13 c8
M  ZZC  14 c9
M  ZZC  15 c10
M  ZZC  16 c11
M  ZZC  17 c12
M  ZZC  18 c13
M  ZZC  19 h11
M  ZZC  20 h51
M  ZZC  21 h21
M  ZZC  22 h81
M  ZZC  23 h82
M  ZZC  24 h91
M  ZZC  25 h92
M  ZZC  26 h101
M  ZZC  27 h102
M  ZZC  28 h111
M  ZZC  29 h121
M  ZZC  30 h131
M  ZZM   1 37
M  ZZI   1 125
M  ZZM   2 37
M  ZZI   2 124
M  ZZM   3 37
M  ZZI   3 124
M  ZZM   4 3
M  ZZI   4 121
M  ZZM   5 7
M  ZZI   5 81
M  ZZM   6 10
M  ZZI   6 192
M  ZZM   7 1
M  ZZI   7 113
M  ZZM   8 3
M  ZZI   8 121
M  ZZM   9 7
M  ZZI   9 81
M  ZZM  10 10
M  ZZI  10 191
M  ZZM  11 3
M  ZZI  11 121
M  ZZM  12 7
M  ZZI  12 81
M  ZZM  13 1
M  ZZI  13 112
M  ZZM  14 1
M  ZZI  14 112
M  ZZM  15 1
M  ZZI  15 112
M  ZZM  16 37
M  ZZI  16 125
M  ZZM  17 37
M  ZZI  17 125
M  ZZM  18 37
M  ZZI  18 125
M  ZZM  19 5
M  ZZI  19 1
M  ZZM  20 5
M  ZZI  20 1
M  ZZM  21 28
M  ZZI  21 11
M  ZZM  22 5
M  ZZI  22 1
M  ZZM  23 5
M  ZZI  23 1
M  ZZM  24 5
M  ZZI  24 1
M  ZZM  25 5
M  ZZI  25 1
M  ZZM  26 5
M  ZZI  26 1
M  ZZM  27 5
M  ZZI  27 1
M  ZZM  28 5
M  ZZI  28 1
M  ZZM  29 5
M  ZZI  29 1
M  ZZM  30 5
M  ZZI  30 1
M  END
> <IX>
1

> <NAME>
Cereblon_6NY4_4.pdb

> <Score>
-15.779298

> <Natom>
30

> <Nflex>
1

> <Hbond>
-4.213401

> <Hphob>
-3.725884

> <VwInt>
-19.469317

> <Dsolv>
13.957548

> <SolEl>
5.064767

> <Eintl>
4.058932

> <RecConf>
ND

> <projPath>
Cereblon_maps/

> <NAME_>
Cereblon_6NY4_4.pdb

$$$$
