Cereblon_5L2I_16.pdb
  MOLSOFT 04032206253D

 31 33  0  0  1  0  0  0  0  0999 V2000
   78.8168   41.6834   43.8151 N   0  0  0  0  0  0  0  0  0  0  0  0
   78.9021   42.4327   42.6314 C   0  0  0  0  0  0  0  0  0  0  0  0
   78.0987   42.1626   41.5365 C   0  0  0  0  0  0  0  0  0  0  0  0
   77.1781   41.0517   41.3307 C   0  0  0  0  0  0  0  0  0  0  0  0
   76.9950   40.1734   42.1608 O   0  0  0  0  0  0  0  0  0  0  0  0
   76.6456   41.2107   40.0667 N   0  0  0  0  0  0  0  0  0  0  0  0
   77.1666   42.3307   39.4514 C   0  0  0  0  0  0  0  0  0  0  0  0
   76.9543   42.7500   38.3210 O   0  0  0  0  0  0  0  0  0  0  0  0
   78.0962   42.9297   40.4111 C   0  0  0  0  0  0  0  0  0  0  0  0
   78.9071   44.0392   40.2883 C   0  0  0  0  0  0  0  0  0  0  0  0
   79.7251   44.3398   41.3716 C   0  0  0  0  0  0  0  0  0  0  0  0
   79.7117   43.5599   42.5295 C   0  0  0  0  0  0  0  0  0  0  0  0
   75.6267   40.3726   39.4312 C   0  0  2  0  0  0  0  0  0  0  0  0
   74.2551   40.9510   39.7347 C   0  0  0  0  0  0  0  0  0  0  0  0
   74.0840   42.1316   39.9899 O   0  0  0  0  0  0  0  0  0  0  0  0
   73.1947   40.0850   39.6215 N   0  0  0  0  0  0  0  0  0  0  0  0
   73.2206   38.7468   39.3113 C   0  0  0  0  0  0  0  0  0  0  0  0
   72.1958   38.0934   39.2028 O   0  0  0  0  0  0  0  0  0  0  0  0
   74.5841   38.1477   39.0608 C   0  0  0  0  0  0  0  0  0  0  0  0
   75.6609   38.8988   39.8236 C   0  0  0  0  0  0  0  0  0  0  0  0
   79.5384   41.7826   44.5260 H   0  0  0  0  0  0  0  0  0  0  0  0
   78.2984   40.8037   43.7907 H   0  0  0  0  0  0  0  0  0  0  0  0
   78.8996   44.6450   39.3898 H   0  0  0  0  0  0  0  0  0  0  0  0
   80.3756   45.2062   41.3252 H   0  0  0  0  0  0  0  0  0  0  0  0
   80.3456   43.8413   43.3648 H   0  0  0  0  0  0  0  0  0  0  0  0
   75.7614   40.4707   38.3528 H   0  0  0  0  0  0  0  0  0  0  0  0
   72.2790   40.4868   39.7808 H   0  0  0  0  0  0  0  0  0  0  0  0
   74.5689   37.1007   39.3800 H   0  0  0  0  0  0  0  0  0  0  0  0
   74.7720   38.1709   37.9829 H   0  0  0  0  0  0  0  0  0  0  0  0
   75.4764   38.7733   40.8945 H   0  0  0  0  0  0  0  0  0  0  0  0
   76.6464   38.4686   39.6182 H   0  0  0  0  0  0  0  0  0  0  0  0
  1  2  1  0  0  0  0
  1 21  1  0  0  0  0
  1 22  1  0  0  0  0
  2  3  1  0  0  0  0
  2 12  2  0  0  0  0
  3  9  2  0  0  0  0
  3  4  1  0  0  0  0
  4  5  2  0  0  0  0
  4  6  1  0  0  0  0
  6  7  1  0  0  0  0
 13  6  1  0  0  0  0
  7  8  2  0  0  0  0
  7  9  1  0  0  0  0
  9 10  1  0  0  0  0
 10 23  1  0  0  0  0
 10 11  2  0  0  0  0
 11 12  1  0  0  0  0
 11 24  1  0  0  0  0
 12 25  1  0  0  0  0
 13 26  1  0  0  0  0
 13 14  1  0  0  0  0
 13 20  1  0  0  0  0
 14 15  2  0  0  0  0
 14 16  1  0  0  0  0
 16 27  1  0  0  0  0
 16 17  1  0  0  0  0
 17 18  2  0  0  0  0
 17 19  1  0  0  0  0
 19 28  1  0  0  0  0
 19 29  1  0  0  0  0
 19 20  1  0  0  0  0
 20 30  1  0  0  0  0
 20 31  1  0  0  0  0
M  ZZC   1 n1
M  ZZC   2 c1
M  ZZC   3 c2
M  ZZC   4 c3
M  ZZC   5 o1
M  ZZC   6 n2
M  ZZC   7 c4
M  ZZC   8 o2
M  ZZC   9 c5
M  ZZC  10 c6
M  ZZC  11 c7
M  ZZC  12 c8
M  ZZC  13 c9
M  ZZC  14 c10
M  ZZC  15 o3
M  ZZC  16 n3
M  ZZC  17 c11
M  ZZC  18 o4
M  ZZC  19 c12
M  ZZC  20 c13
M  ZZC  21 h11
M  ZZC  22 h12
M  ZZC  23 h61
M  ZZC  24 h71
M  ZZC  25 h81
M  ZZC  26 h91
M  ZZC  27 h31
M  ZZC  28 h121
M  ZZC  29 h122
M  ZZC  30 h131
M  ZZC  31 h132
M  ZZM   1 40
M  ZZI   1 224
M  ZZM   2 37
M  ZZI   2 124
M  ZZM   3 37
M  ZZI   3 124
M  ZZM   4 3
M  ZZI   4 121
M  ZZM   5 7
M  ZZI   5 81
M  ZZM   6 10
M  ZZI   6 192
M  ZZM   7 3
M  ZZI   7 121
M  ZZM   8 7
M  ZZI   8 81
M  ZZM   9 37
M  ZZI   9 124
M  ZZM  10 37
M  ZZI  10 125
M  ZZM  11 37
M  ZZI  11 125
M  ZZM  12 37
M  ZZI  12 125
M  ZZM  13 1
M  ZZI  13 113
M  ZZM  14 3
M  ZZI  14 121
M  ZZM  15 7
M  ZZI  15 81
M  ZZM  16 10
M  ZZI  16 191
M  ZZM  17 3
M  ZZI  17 121
M  ZZM  18 7
M  ZZI  18 81
M  ZZM  19 1
M  ZZI  19 112
M  ZZM  20 1
M  ZZI  20 112
M  ZZM  21 28
M  ZZI  21 11
M  ZZM  22 28
M  ZZI  22 11
M  ZZM  23 5
M  ZZI  23 1
M  ZZM  24 5
M  ZZI  24 1
M  ZZM  25 5
M  ZZI  25 1
M  ZZM  26 5
M  ZZI  26 1
M  ZZM  27 28
M  ZZI  27 11
M  ZZM  28 5
M  ZZI  28 1
M  ZZM  29 5
M  ZZI  29 1
M  ZZM  30 5
M  ZZI  30 1
M  ZZM  31 5
M  ZZI  31 1
M  END
> <IX>
1

> <NAME>
Cereblon_5L2I_16.pdb

> <Score>
-18.546518

> <Natom>
31

> <Nflex>
1

> <Hbond>
-3.669152

> <Hphob>
-3.561976

> <VwInt>
-24.291563

> <Dsolv>
15.090159

> <SolEl>
6.809717

> <Eintl>
1.67082

> <RecConf>
ND

> <projPath>
Cereblon_maps/

> <NAME_>
Cereblon_5L2I_16.pdb

$$$$
