Cereblon_6P3D_1.pdb
  MOLSOFT 04032206293D

 29 31  0  0  1  0  0  0  0  0999 V2000
   76.3158   40.4913   40.6527 C   0  0  0  0  0  0  0  0  0  0  0  0
   75.3260   40.2829   39.7093 C   0  0  0  0  0  0  0  0  0  0  0  0
   74.4551   41.2474   39.0443 C   0  0  0  0  0  0  0  0  0  0  0  0
   74.4469   42.4324   39.3395 O   0  0  0  0  0  0  0  0  0  0  0  0
   73.6923   40.5323   38.1385 N   0  0  0  0  0  0  0  0  0  0  0  0
   73.9562   39.1813   38.2478 C   0  0  0  0  0  0  0  0  0  0  0  0
   73.4489   38.2398   37.6558 O   0  0  0  0  0  0  0  0  0  0  0  0
   75.0139   39.0423   39.2474 C   0  0  0  0  0  0  0  0  0  0  0  0
   75.6599   37.9081   39.7044 C   0  0  0  0  0  0  0  0  0  0  0  0
   76.6578   38.0926   40.6553 C   0  0  0  0  0  0  0  0  0  0  0  0
   76.9816   39.3664   41.1231 C   0  0  0  0  0  0  0  0  0  0  0  0
   72.6612   41.0702   37.2385 C   0  0  1  0  0  0  0  0  0  0  0  0
   71.3545   41.2750   37.9985 C   0  0  0  0  0  0  0  0  0  0  0  0
   71.0420   40.6206   38.9826 O   0  0  0  0  0  0  0  0  0  0  0  0
   70.4840   42.1946   37.4596 N   0  0  0  0  0  0  0  0  0  0  0  0
   70.6742   43.0420   36.3999 C   0  0  0  0  0  0  0  0  0  0  0  0
   69.8498   43.8971   36.1143 O   0  0  0  0  0  0  0  0  0  0  0  0
   71.9445   42.8304   35.6156 C   0  0  0  0  0  0  0  0  0  0  0  0
   73.0733   42.3498   36.5142 C   0  0  0  0  0  0  0  0  0  0  0  0
   76.5705   41.4858   41.0053 H   0  0  0  0  0  0  0  0  0  0  0  0
   75.4063   36.9193   39.3337 H   0  0  0  0  0  0  0  0  0  0  0  0
   77.1955   37.2311   41.0394 H   0  0  0  0  0  0  0  0  0  0  0  0
   77.7653   39.4823   41.8660 H   0  0  0  0  0  0  0  0  0  0  0  0
   72.4494   40.2990   36.4887 H   0  0  0  0  0  0  0  0  0  0  0  0
   69.6137   42.3239   37.9544 H   0  0  0  0  0  0  0  0  0  0  0  0
   71.7422   42.1111   34.8147 H   0  0  0  0  0  0  0  0  0  0  0  0
   72.2209   43.7825   35.1583 H   0  0  0  0  0  0  0  0  0  0  0  0
   73.3192   43.1428   37.2258 H   0  0  0  0  0  0  0  0  0  0  0  0
   73.9751   42.1738   35.9193 H   0  0  0  0  0  0  0  0  0  0  0  0
  1 20  1  0  0  0  0
  1  2  1  0  0  0  0
  1 11  2  0  0  0  0
  2  3  1  0  0  0  0
  2  8  2  0  0  0  0
  3  4  2  0  0  0  0
  3  5  1  0  0  0  0
  5  6  1  0  0  0  0
 12  5  1  0  0  0  0
  6  7  2  0  0  0  0
  6  8  1  0  0  0  0
  8  9  1  0  0  0  0
  9 21  1  0  0  0  0
  9 10  2  0  0  0  0
 10 22  1  0  0  0  0
 10 11  1  0  0  0  0
 11 23  1  0  0  0  0
 12 24  1  0  0  0  0
 12 13  1  0  0  0  0
 12 19  1  0  0  0  0
 13 14  2  0  0  0  0
 13 15  1  0  0  0  0
 15 25  1  0  0  0  0
 15 16  1  0  0  0  0
 16 17  2  0  0  0  0
 16 18  1  0  0  0  0
 18 26  1  0  0  0  0
 18 27  1  0  0  0  0
 18 19  1  0  0  0  0
 19 28  1  0  0  0  0
 19 29  1  0  0  0  0
M  ZZC   1 c1
M  ZZC   2 c2
M  ZZC   3 c3
M  ZZC   4 o1
M  ZZC   5 n1
M  ZZC   6 c4
M  ZZC   7 o2
M  ZZC   8 c5
M  ZZC   9 c6
M  ZZC  10 c7
M  ZZC  11 c8
M  ZZC  12 c9
M  ZZC  13 c10
M  ZZC  14 o3
M  ZZC  15 n2
M  ZZC  16 c11
M  ZZC  17 o4
M  ZZC  18 c12
M  ZZC  19 c13
M  ZZC  20 h11
M  ZZC  21 h61
M  ZZC  22 h71
M  ZZC  23 h81
M  ZZC  24 h91
M  ZZC  25 h21
M  ZZC  26 h121
M  ZZC  27 h122
M  ZZC  28 h131
M  ZZC  29 h132
M  ZZM   1 37
M  ZZI   1 125
M  ZZM   2 37
M  ZZI   2 124
M  ZZM   3 3
M  ZZI   3 121
M  ZZM   4 7
M  ZZI   4 81
M  ZZM   5 10
M  ZZI   5 192
M  ZZM   6 3
M  ZZI   6 121
M  ZZM   7 7
M  ZZI   7 81
M  ZZM   8 37
M  ZZI   8 124
M  ZZM   9 37
M  ZZI   9 125
M  ZZM  10 37
M  ZZI  10 125
M  ZZM  11 37
M  ZZI  11 125
M  ZZM  12 1
M  ZZI  12 113
M  ZZM  13 3
M  ZZI  13 121
M  ZZM  14 7
M  ZZI  14 81
M  ZZM  15 10
M  ZZI  15 191
M  ZZM  16 3
M  ZZI  16 121
M  ZZM  17 7
M  ZZI  17 81
M  ZZM  18 1
M  ZZI  18 112
M  ZZM  19 1
M  ZZI  19 112
M  ZZM  20 5
M  ZZI  20 1
M  ZZM  21 5
M  ZZI  21 1
M  ZZM  22 5
M  ZZI  22 1
M  ZZM  23 5
M  ZZI  23 1
M  ZZM  24 5
M  ZZI  24 1
M  ZZM  25 28
M  ZZI  25 11
M  ZZM  26 5
M  ZZI  26 1
M  ZZM  27 5
M  ZZI  27 1
M  ZZM  28 5
M  ZZI  28 1
M  ZZM  29 5
M  ZZI  29 1
M  END
> <IX>
1

> <NAME>
Cereblon_6P3D_1.pdb

> <Score>
-20.763342

> <Natom>
29

> <Nflex>
1

> <Hbond>
-4.561177

> <Hphob>
-3.508664

> <VwInt>
-22.412834

> <Dsolv>
13.386098

> <SolEl>
6.89969

> <Eintl>
0.577846

> <RecConf>
ND

> <projPath>
Cereblon_maps/

> <NAME_>
Cereblon_6P3D_1.pdb

$$$$
