Cereblon_3MXF_31.pdb
  MOLSOFT 04032206223D

 30 32  0  0  1  0  0  0  0  0999 V2000
   75.6782   37.9155   39.7487 C   0  0  0  0  0  0  0  0  0  0  0  0
   74.9870   39.0168   39.2704 C   0  0  0  0  0  0  0  0  0  0  0  0
   75.3037   40.2684   39.7163 C   0  0  0  0  0  0  0  0  0  0  0  0
   74.4194   41.2290   39.0545 C   0  0  0  0  0  0  0  0  0  0  0  0
   74.4255   42.4242   39.3078 O   0  0  0  0  0  0  0  0  0  0  0  0
   73.6431   40.5086   38.1590 N   0  0  0  0  0  0  0  0  0  0  0  0
   72.6089   41.0329   37.2518 C   0  0  1  0  0  0  0  0  0  0  0  0
   71.2866   41.2537   37.9852 C   0  0  0  0  0  0  0  0  0  0  0  0
   70.9267   40.5766   38.9374 O   0  0  0  0  0  0  0  0  0  0  0  0
   70.4498   42.2069   37.4505 N   0  0  0  0  0  0  0  0  0  0  0  0
   70.6578   43.0341   36.3786 C   0  0  0  0  0  0  0  0  0  0  0  0
   69.8543   43.9053   36.0823 O   0  0  0  0  0  0  0  0  0  0  0  0
   71.9165   42.7708   35.5922 C   0  0  0  0  0  0  0  0  0  0  0  0
   73.0360   42.2951   36.5040 C   0  0  0  0  0  0  0  0  0  0  0  0
   73.8785   39.0797   38.2813 C   0  0  0  0  0  0  0  0  0  0  0  0
   76.3104   40.5147   40.6320 C   0  0  0  0  0  0  0  0  0  0  0  0
   77.0079   39.4167   41.1130 C   0  0  0  0  0  0  0  0  0  0  0  0
   76.6936   38.1329   40.6738 C   0  0  0  0  0  0  0  0  0  0  0  0
   75.4444   36.9108   39.4105 H   0  0  0  0  0  0  0  0  0  0  0  0
   72.4187   40.2500   36.5082 H   0  0  0  0  0  0  0  0  0  0  0  0
   69.5791   42.3557   37.9386 H   0  0  0  0  0  0  0  0  0  0  0  0
   71.6942   42.0306   34.8160 H   0  0  0  0  0  0  0  0  0  0  0  0
   72.2112   43.7007   35.1016 H   0  0  0  0  0  0  0  0  0  0  0  0
   73.9382   42.0972   35.9163 H   0  0  0  0  0  0  0  0  0  0  0  0
   73.2878   43.0995   37.2007 H   0  0  0  0  0  0  0  0  0  0  0  0
   74.1683   38.6667   37.3094 H   0  0  0  0  0  0  0  0  0  0  0  0
   72.9743   38.5910   38.6600 H   0  0  0  0  0  0  0  0  0  0  0  0
   76.5547   41.5217   40.9546 H   0  0  0  0  0  0  0  0  0  0  0  0
   77.8061   39.5617   41.8346 H   0  0  0  0  0  0  0  0  0  0  0  0
   77.2540   37.2871   41.0594 H   0  0  0  0  0  0  0  0  0  0  0  0
  1 19  1  0  0  0  0
  1 18  2  0  0  0  0
  1  2  1  0  0  0  0
  2  3  2  0  0  0  0
  2 15  1  0  0  0  0
  3 16  1  0  0  0  0
  3  4  1  0  0  0  0
  4  6  1  0  0  0  0
  4  5  2  0  0  0  0
  6 15  1  0  0  0  0
  7  6  1  0  0  0  0
  7 20  1  0  0  0  0
  7  8  1  0  0  0  0
  7 14  1  0  0  0  0
  8  9  2  0  0  0  0
  8 10  1  0  0  0  0
 10 21  1  0  0  0  0
 10 11  1  0  0  0  0
 11 12  2  0  0  0  0
 11 13  1  0  0  0  0
 13 22  1  0  0  0  0
 13 23  1  0  0  0  0
 13 14  1  0  0  0  0
 14 24  1  0  0  0  0
 14 25  1  0  0  0  0
 15 26  1  0  0  0  0
 15 27  1  0  0  0  0
 16 17  2  0  0  0  0
 16 28  1  0  0  0  0
 17 18  1  0  0  0  0
 17 29  1  0  0  0  0
 18 30  1  0  0  0  0
M  ZZC   1 c1
M  ZZC   2 c2
M  ZZC   3 c3
M  ZZC   4 c4
M  ZZC   5 o1
M  ZZC   6 n1
M  ZZC   7 c5
M  ZZC   8 c6
M  ZZC   9 o2
M  ZZC  10 n2
M  ZZC  11 c7
M  ZZC  12 o3
M  ZZC  13 c8
M  ZZC  14 c9
M  ZZC  15 c10
M  ZZC  16 c11
M  ZZC  17 c12
M  ZZC  18 c13
M  ZZC  19 h11
M  ZZC  20 h51
M  ZZC  21 h21
M  ZZC  22 h81
M  ZZC  23 h82
M  ZZC  24 h91
M  ZZC  25 h92
M  ZZC  26 h101
M  ZZC  27 h102
M  ZZC  28 h111
M  ZZC  29 h121
M  ZZC  30 h131
M  ZZM   1 37
M  ZZI   1 125
M  ZZM   2 37
M  ZZI   2 124
M  ZZM   3 37
M  ZZI   3 124
M  ZZM   4 3
M  ZZI   4 121
M  ZZM   5 7
M  ZZI   5 81
M  ZZM   6 10
M  ZZI   6 192
M  ZZM   7 1
M  ZZI   7 113
M  ZZM   8 3
M  ZZI   8 121
M  ZZM   9 7
M  ZZI   9 81
M  ZZM  10 10
M  ZZI  10 191
M  ZZM  11 3
M  ZZI  11 121
M  ZZM  12 7
M  ZZI  12 81
M  ZZM  13 1
M  ZZI  13 112
M  ZZM  14 1
M  ZZI  14 112
M  ZZM  15 1
M  ZZI  15 112
M  ZZM  16 37
M  ZZI  16 125
M  ZZM  17 37
M  ZZI  17 125
M  ZZM  18 37
M  ZZI  18 125
M  ZZM  19 5
M  ZZI  19 1
M  ZZM  20 5
M  ZZI  20 1
M  ZZM  21 28
M  ZZI  21 11
M  ZZM  22 5
M  ZZI  22 1
M  ZZM  23 5
M  ZZI  23 1
M  ZZM  24 5
M  ZZI  24 1
M  ZZM  25 5
M  ZZI  25 1
M  ZZM  26 5
M  ZZI  26 1
M  ZZM  27 5
M  ZZI  27 1
M  ZZM  28 5
M  ZZI  28 1
M  ZZM  29 5
M  ZZI  29 1
M  ZZM  30 5
M  ZZI  30 1
M  END
> <IX>
1

> <NAME>
Cereblon_3MXF_31.pdb

> <Score>
-20.801329

> <Natom>
30

> <Nflex>
1

> <Hbond>
-4.627077

> <Hphob>
-3.646078

> <VwInt>
-21.967673

> <Dsolv>
13.221362

> <SolEl>
5.709289

> <Eintl>
1.719281

> <RecConf>
ND

> <projPath>
Cereblon_maps/

> <NAME_>
Cereblon_3MXF_31.pdb

$$$$
