Cereblon_1EJ1_12.pdb
  MOLSOFT 04032206183D

 30 32  0  0  1  0  0  0  0  0999 V2000
   76.0590   42.8420   38.6169 C   0  0  0  0  0  0  0  0  0  0  0  0
   74.9791   42.0629   38.2356 C   0  0  0  0  0  0  0  0  0  0  0  0
   74.7311   40.8783   38.8687 C   0  0  0  0  0  0  0  0  0  0  0  0
   73.5574   40.2605   38.2469 C   0  0  0  0  0  0  0  0  0  0  0  0
   73.1128   39.1695   38.5721 O   0  0  0  0  0  0  0  0  0  0  0  0
   73.1133   41.1352   37.2711 N   0  0  0  0  0  0  0  0  0  0  0  0
   71.9680   40.8505   36.3868 C   0  0  1  0  0  0  0  0  0  0  0  0
   70.6416   41.0180   37.1257 C   0  0  0  0  0  0  0  0  0  0  0  0
   70.1995   40.2078   37.9259 O   0  0  0  0  0  0  0  0  0  0  0  0
   69.9381   42.1668   36.8848 N   0  0  0  0  0  0  0  0  0  0  0  0
   70.2129   43.1856   36.0242 C   0  0  0  0  0  0  0  0  0  0  0  0
   69.4810   44.1580   35.9781 O   0  0  0  0  0  0  0  0  0  0  0  0
   71.4668   43.0603   35.2030 C   0  0  0  0  0  0  0  0  0  0  0  0
   71.9224   41.6135   35.0599 C   0  0  0  0  0  0  0  0  0  0  0  0
   73.9713   42.3047   37.1717 C   0  0  0  0  0  0  0  0  0  0  0  0
   75.5095   40.3977   39.9048 C   0  0  0  0  0  0  0  0  0  0  0  0
   76.5757   41.1868   40.3089 C   0  0  0  0  0  0  0  0  0  0  0  0
   76.8453   42.3942   39.6699 C   0  0  0  0  0  0  0  0  0  0  0  0
   76.2938   43.7749   38.1140 H   0  0  0  0  0  0  0  0  0  0  0  0
   72.0352   39.7831   36.1479 H   0  0  0  0  0  0  0  0  0  0  0  0
   69.0678   42.2624   37.3915 H   0  0  0  0  0  0  0  0  0  0  0  0
   71.2559   43.4669   34.2109 H   0  0  0  0  0  0  0  0  0  0  0  0
   72.2333   43.6939   35.6529 H   0  0  0  0  0  0  0  0  0  0  0  0
   71.2116   41.1056   34.3975 H   0  0  0  0  0  0  0  0  0  0  0  0
   72.8904   41.5739   34.5523 H   0  0  0  0  0  0  0  0  0  0  0  0
   73.3944   43.2089   37.3732 H   0  0  0  0  0  0  0  0  0  0  0  0
   74.4431   42.3393   36.1847 H   0  0  0  0  0  0  0  0  0  0  0  0
   75.2974   39.4458   40.3810 H   0  0  0  0  0  0  0  0  0  0  0  0
   77.2143   40.8557   41.1223 H   0  0  0  0  0  0  0  0  0  0  0  0
   77.6924   42.9905   39.9953 H   0  0  0  0  0  0  0  0  0  0  0  0
  1 19  1  0  0  0  0
  1 18  2  0  0  0  0
  1  2  1  0  0  0  0
  2  3  2  0  0  0  0
  2 15  1  0  0  0  0
  3 16  1  0  0  0  0
  3  4  1  0  0  0  0
  4  6  1  0  0  0  0
  4  5  2  0  0  0  0
  6 15  1  0  0  0  0
  7  6  1  0  0  0  0
  7 20  1  0  0  0  0
  7  8  1  0  0  0  0
  7 14  1  0  0  0  0
  8  9  2  0  0  0  0
  8 10  1  0  0  0  0
 10 21  1  0  0  0  0
 10 11  1  0  0  0  0
 11 12  2  0  0  0  0
 11 13  1  0  0  0  0
 13 22  1  0  0  0  0
 13 23  1  0  0  0  0
 13 14  1  0  0  0  0
 14 24  1  0  0  0  0
 14 25  1  0  0  0  0
 15 26  1  0  0  0  0
 15 27  1  0  0  0  0
 16 17  2  0  0  0  0
 16 28  1  0  0  0  0
 17 18  1  0  0  0  0
 17 29  1  0  0  0  0
 18 30  1  0  0  0  0
M  ZZC   1 c1
M  ZZC   2 c2
M  ZZC   3 c3
M  ZZC   4 c4
M  ZZC   5 o1
M  ZZC   6 n1
M  ZZC   7 c5
M  ZZC   8 c6
M  ZZC   9 o2
M  ZZC  10 n2
M  ZZC  11 c7
M  ZZC  12 o3
M  ZZC  13 c8
M  ZZC  14 c9
M  ZZC  15 c10
M  ZZC  16 c11
M  ZZC  17 c12
M  ZZC  18 c13
M  ZZC  19 h11
M  ZZC  20 h51
M  ZZC  21 h21
M  ZZC  22 h81
M  ZZC  23 h82
M  ZZC  24 h91
M  ZZC  25 h92
M  ZZC  26 h101
M  ZZC  27 h102
M  ZZC  28 h111
M  ZZC  29 h121
M  ZZC  30 h131
M  ZZM   1 37
M  ZZI   1 125
M  ZZM   2 37
M  ZZI   2 124
M  ZZM   3 37
M  ZZI   3 124
M  ZZM   4 3
M  ZZI   4 121
M  ZZM   5 7
M  ZZI   5 81
M  ZZM   6 10
M  ZZI   6 192
M  ZZM   7 1
M  ZZI   7 113
M  ZZM   8 3
M  ZZI   8 121
M  ZZM   9 7
M  ZZI   9 81
M  ZZM  10 10
M  ZZI  10 191
M  ZZM  11 3
M  ZZI  11 121
M  ZZM  12 7
M  ZZI  12 81
M  ZZM  13 1
M  ZZI  13 112
M  ZZM  14 1
M  ZZI  14 112
M  ZZM  15 1
M  ZZI  15 112
M  ZZM  16 37
M  ZZI  16 125
M  ZZM  17 37
M  ZZI  17 125
M  ZZM  18 37
M  ZZI  18 125
M  ZZM  19 5
M  ZZI  19 1
M  ZZM  20 5
M  ZZI  20 1
M  ZZM  21 28
M  ZZI  21 11
M  ZZM  22 5
M  ZZI  22 1
M  ZZM  23 5
M  ZZI  23 1
M  ZZM  24 5
M  ZZI  24 1
M  ZZM  25 5
M  ZZI  25 1
M  ZZM  26 5
M  ZZI  26 1
M  ZZM  27 5
M  ZZI  27 1
M  ZZM  28 5
M  ZZI  28 1
M  ZZM  29 5
M  ZZI  29 1
M  ZZM  30 5
M  ZZI  30 1
M  END
> <IX>
1

> <NAME>
Cereblon_1EJ1_12.pdb

> <Score>
-14.224258

> <Natom>
30

> <Nflex>
1

> <Hbond>
-4.297381

> <Hphob>
-3.934952

> <VwInt>
-21.85794

> <Dsolv>
12.560842

> <SolEl>
11.841898

> <Eintl>
5.510319

> <RecConf>
ND

> <projPath>
Cereblon_maps/

> <NAME_>
Cereblon_1EJ1_12.pdb

$$$$
