Cereblon_5G0J_19.pdb
  MOLSOFT 04032206243D

 31 33  0  0  1  0  0  0  0  0999 V2000
   81.6190   53.0760   19.7054 N   0  0  0  0  0  0  0  0  0  0  0  0
   81.9321   54.4410   19.7377 C   0  0  0  0  0  0  0  0  0  0  0  0
   81.2301   55.3376   20.5251 C   0  0  0  0  0  0  0  0  0  0  0  0
   80.0290   55.1243   21.3279 C   0  0  0  0  0  0  0  0  0  0  0  0
   79.4219   54.0648   21.4009 O   0  0  0  0  0  0  0  0  0  0  0  0
   79.7599   56.3260   21.9461 N   0  0  0  0  0  0  0  0  0  0  0  0
   80.6721   57.2922   21.5760 C   0  0  0  0  0  0  0  0  0  0  0  0
   80.7452   58.4690   21.8986 O   0  0  0  0  0  0  0  0  0  0  0  0
   81.6102   56.6380   20.6673 C   0  0  0  0  0  0  0  0  0  0  0  0
   82.7266   57.1510   20.0339 C   0  0  0  0  0  0  0  0  0  0  0  0
   83.4595   56.2685   19.2505 C   0  0  0  0  0  0  0  0  0  0  0  0
   83.0777   54.9319   19.1244 C   0  0  0  0  0  0  0  0  0  0  0  0
   78.6167   56.5119   22.8394 C   0  0  2  0  0  0  0  0  0  0  0  0
   77.4666   57.1884   22.1180 C   0  0  0  0  0  0  0  0  0  0  0  0
   77.3310   57.1807   20.9034 O   0  0  0  0  0  0  0  0  0  0  0  0
   76.5168   57.7382   22.9461 N   0  0  0  0  0  0  0  0  0  0  0  0
   76.4986   57.7903   24.3194 C   0  0  0  0  0  0  0  0  0  0  0  0
   75.5314   58.2110   24.9334 O   0  0  0  0  0  0  0  0  0  0  0  0
   77.7205   57.2486   25.0231 C   0  0  0  0  0  0  0  0  0  0  0  0
   78.9340   57.2863   24.1148 C   0  0  0  0  0  0  0  0  0  0  0  0
   82.0378   52.5275   18.9594 H   0  0  0  0  0  0  0  0  0  0  0  0
   80.6520   52.8414   19.9289 H   0  0  0  0  0  0  0  0  0  0  0  0
   83.0254   58.1880   20.1528 H   0  0  0  0  0  0  0  0  0  0  0  0
   84.3531   56.6190   18.7410 H   0  0  0  0  0  0  0  0  0  0  0  0
   83.6879   54.2585   18.5312 H   0  0  0  0  0  0  0  0  0  0  0  0
   78.2508   55.5151   23.1003 H   0  0  0  0  0  0  0  0  0  0  0  0
   75.7235   58.1584   22.4806 H   0  0  0  0  0  0  0  0  0  0  0  0
   77.9074   57.8473   25.9204 H   0  0  0  0  0  0  0  0  0  0  0  0
   77.5104   56.2230   25.3360 H   0  0  0  0  0  0  0  0  0  0  0  0
   79.1862   58.3285   23.8916 H   0  0  0  0  0  0  0  0  0  0  0  0
   79.7968   56.8530   24.6286 H   0  0  0  0  0  0  0  0  0  0  0  0
  1  2  1  0  0  0  0
  1 21  1  0  0  0  0
  1 22  1  0  0  0  0
  2  3  1  0  0  0  0
  2 12  2  0  0  0  0
  3  9  2  0  0  0  0
  3  4  1  0  0  0  0
  4  5  2  0  0  0  0
  4  6  1  0  0  0  0
  6  7  1  0  0  0  0
 13  6  1  0  0  0  0
  7  8  2  0  0  0  0
  7  9  1  0  0  0  0
  9 10  1  0  0  0  0
 10 23  1  0  0  0  0
 10 11  2  0  0  0  0
 11 12  1  0  0  0  0
 11 24  1  0  0  0  0
 12 25  1  0  0  0  0
 13 26  1  0  0  0  0
 13 14  1  0  0  0  0
 13 20  1  0  0  0  0
 14 15  2  0  0  0  0
 14 16  1  0  0  0  0
 16 27  1  0  0  0  0
 16 17  1  0  0  0  0
 17 18  2  0  0  0  0
 17 19  1  0  0  0  0
 19 28  1  0  0  0  0
 19 29  1  0  0  0  0
 19 20  1  0  0  0  0
 20 30  1  0  0  0  0
 20 31  1  0  0  0  0
M  ZZC   1 n1
M  ZZC   2 c1
M  ZZC   3 c2
M  ZZC   4 c3
M  ZZC   5 o1
M  ZZC   6 n2
M  ZZC   7 c4
M  ZZC   8 o2
M  ZZC   9 c5
M  ZZC  10 c6
M  ZZC  11 c7
M  ZZC  12 c8
M  ZZC  13 c9
M  ZZC  14 c10
M  ZZC  15 o3
M  ZZC  16 n3
M  ZZC  17 c11
M  ZZC  18 o4
M  ZZC  19 c12
M  ZZC  20 c13
M  ZZC  21 h11
M  ZZC  22 h12
M  ZZC  23 h61
M  ZZC  24 h71
M  ZZC  25 h81
M  ZZC  26 h91
M  ZZC  27 h31
M  ZZC  28 h121
M  ZZC  29 h122
M  ZZC  30 h131
M  ZZC  31 h132
M  ZZM   1 40
M  ZZI   1 224
M  ZZM   2 37
M  ZZI   2 124
M  ZZM   3 37
M  ZZI   3 124
M  ZZM   4 3
M  ZZI   4 121
M  ZZM   5 7
M  ZZI   5 81
M  ZZM   6 10
M  ZZI   6 192
M  ZZM   7 3
M  ZZI   7 121
M  ZZM   8 7
M  ZZI   8 81
M  ZZM   9 37
M  ZZI   9 124
M  ZZM  10 37
M  ZZI  10 125
M  ZZM  11 37
M  ZZI  11 125
M  ZZM  12 37
M  ZZI  12 125
M  ZZM  13 1
M  ZZI  13 113
M  ZZM  14 3
M  ZZI  14 121
M  ZZM  15 7
M  ZZI  15 81
M  ZZM  16 10
M  ZZI  16 191
M  ZZM  17 3
M  ZZI  17 121
M  ZZM  18 7
M  ZZI  18 81
M  ZZM  19 1
M  ZZI  19 112
M  ZZM  20 1
M  ZZI  20 112
M  ZZM  21 28
M  ZZI  21 11
M  ZZM  22 28
M  ZZI  22 11
M  ZZM  23 5
M  ZZI  23 1
M  ZZM  24 5
M  ZZI  24 1
M  ZZM  25 5
M  ZZI  25 1
M  ZZM  26 5
M  ZZI  26 1
M  ZZM  27 28
M  ZZI  27 11
M  ZZM  28 5
M  ZZI  28 1
M  ZZM  29 5
M  ZZI  29 1
M  ZZM  30 5
M  ZZI  30 1
M  ZZM  31 5
M  ZZI  31 1
M  END
> <IX>
1

> <NAME>
Cereblon_5G0J_19.pdb

> <Score>
-23.440094

> <Natom>
31

> <Nflex>
1

> <Hbond>
-4.560463

> <Hphob>
-3.331208

> <VwInt>
-24.643265

> <Dsolv>
14.037521

> <SolEl>
5.054767

> <Eintl>
0.847944

> <RecConf>
ND

> <projPath>
Cereblon_maps/

> <NAME_>
Cereblon_5G0J_19.pdb

$$$$
