Cereblon_3MXF_30.pdb
  MOLSOFT 04032206223D

 30 32  0  0  1  0  0  0  0  0999 V2000
   75.6572   37.9046   39.7411 C   0  0  0  0  0  0  0  0  0  0  0  0
   74.9725   39.0092   39.2640 C   0  0  0  0  0  0  0  0  0  0  0  0
   75.2948   40.2583   39.7128 C   0  0  0  0  0  0  0  0  0  0  0  0
   74.4152   41.2249   39.0519 C   0  0  0  0  0  0  0  0  0  0  0  0
   74.4265   42.4192   39.3082 O   0  0  0  0  0  0  0  0  0  0  0  0
   73.6368   40.5101   38.1536 N   0  0  0  0  0  0  0  0  0  0  0  0
   72.6044   41.0388   37.2463 C   0  0  1  0  0  0  0  0  0  0  0  0
   71.2800   41.2551   37.9780 C   0  0  0  0  0  0  0  0  0  0  0  0
   70.9175   40.5734   38.9259 O   0  0  0  0  0  0  0  0  0  0  0  0
   70.4441   42.2101   37.4459 N   0  0  0  0  0  0  0  0  0  0  0  0
   70.6549   43.0435   36.3800 C   0  0  0  0  0  0  0  0  0  0  0  0
   69.8490   43.9134   36.0867 O   0  0  0  0  0  0  0  0  0  0  0  0
   71.9166   42.7884   35.5962 C   0  0  0  0  0  0  0  0  0  0  0  0
   73.0340   42.3050   36.5062 C   0  0  0  0  0  0  0  0  0  0  0  0
   73.8660   39.0797   38.2733 C   0  0  0  0  0  0  0  0  0  0  0  0
   76.3015   40.4978   40.6303 C   0  0  0  0  0  0  0  0  0  0  0  0
   76.9931   39.3954   41.1094 C   0  0  0  0  0  0  0  0  0  0  0  0
   76.6725   38.1144   40.6675 C   0  0  0  0  0  0  0  0  0  0  0  0
   75.4164   36.9022   39.4009 H   0  0  0  0  0  0  0  0  0  0  0  0
   72.4169   40.2590   36.4988 H   0  0  0  0  0  0  0  0  0  0  0  0
   69.5710   42.3542   37.9317 H   0  0  0  0  0  0  0  0  0  0  0  0
   71.6981   42.0551   34.8126 H   0  0  0  0  0  0  0  0  0  0  0  0
   72.2126   43.7234   35.1163 H   0  0  0  0  0  0  0  0  0  0  0  0
   73.9372   42.1129   35.9182 H   0  0  0  0  0  0  0  0  0  0  0  0
   73.2843   43.1031   37.2104 H   0  0  0  0  0  0  0  0  0  0  0  0
   74.1548   38.6678   37.3005 H   0  0  0  0  0  0  0  0  0  0  0  0
   72.9591   38.5938   38.6490 H   0  0  0  0  0  0  0  0  0  0  0  0
   76.5503   41.5028   40.9559 H   0  0  0  0  0  0  0  0  0  0  0  0
   77.7915   39.5348   41.8319 H   0  0  0  0  0  0  0  0  0  0  0  0
   77.2276   37.2651   41.0530 H   0  0  0  0  0  0  0  0  0  0  0  0
  1 19  1  0  0  0  0
  1 18  2  0  0  0  0
  1  2  1  0  0  0  0
  2  3  2  0  0  0  0
  2 15  1  0  0  0  0
  3 16  1  0  0  0  0
  3  4  1  0  0  0  0
  4  6  1  0  0  0  0
  4  5  2  0  0  0  0
  6 15  1  0  0  0  0
  7  6  1  0  0  0  0
  7 20  1  0  0  0  0
  7  8  1  0  0  0  0
  7 14  1  0  0  0  0
  8  9  2  0  0  0  0
  8 10  1  0  0  0  0
 10 21  1  0  0  0  0
 10 11  1  0  0  0  0
 11 12  2  0  0  0  0
 11 13  1  0  0  0  0
 13 22  1  0  0  0  0
 13 23  1  0  0  0  0
 13 14  1  0  0  0  0
 14 24  1  0  0  0  0
 14 25  1  0  0  0  0
 15 26  1  0  0  0  0
 15 27  1  0  0  0  0
 16 17  2  0  0  0  0
 16 28  1  0  0  0  0
 17 18  1  0  0  0  0
 17 29  1  0  0  0  0
 18 30  1  0  0  0  0
M  ZZC   1 c1
M  ZZC   2 c2
M  ZZC   3 c3
M  ZZC   4 c4
M  ZZC   5 o1
M  ZZC   6 n1
M  ZZC   7 c5
M  ZZC   8 c6
M  ZZC   9 o2
M  ZZC  10 n2
M  ZZC  11 c7
M  ZZC  12 o3
M  ZZC  13 c8
M  ZZC  14 c9
M  ZZC  15 c10
M  ZZC  16 c11
M  ZZC  17 c12
M  ZZC  18 c13
M  ZZC  19 h11
M  ZZC  20 h51
M  ZZC  21 h21
M  ZZC  22 h81
M  ZZC  23 h82
M  ZZC  24 h91
M  ZZC  25 h92
M  ZZC  26 h101
M  ZZC  27 h102
M  ZZC  28 h111
M  ZZC  29 h121
M  ZZC  30 h131
M  ZZM   1 37
M  ZZI   1 125
M  ZZM   2 37
M  ZZI   2 124
M  ZZM   3 37
M  ZZI   3 124
M  ZZM   4 3
M  ZZI   4 121
M  ZZM   5 7
M  ZZI   5 81
M  ZZM   6 10
M  ZZI   6 192
M  ZZM   7 1
M  ZZI   7 113
M  ZZM   8 3
M  ZZI   8 121
M  ZZM   9 7
M  ZZI   9 81
M  ZZM  10 10
M  ZZI  10 191
M  ZZM  11 3
M  ZZI  11 121
M  ZZM  12 7
M  ZZI  12 81
M  ZZM  13 1
M  ZZI  13 112
M  ZZM  14 1
M  ZZI  14 112
M  ZZM  15 1
M  ZZI  15 112
M  ZZM  16 37
M  ZZI  16 125
M  ZZM  17 37
M  ZZI  17 125
M  ZZM  18 37
M  ZZI  18 125
M  ZZM  19 5
M  ZZI  19 1
M  ZZM  20 5
M  ZZI  20 1
M  ZZM  21 28
M  ZZI  21 11
M  ZZM  22 5
M  ZZI  22 1
M  ZZM  23 5
M  ZZI  23 1
M  ZZM  24 5
M  ZZI  24 1
M  ZZM  25 5
M  ZZI  25 1
M  ZZM  26 5
M  ZZI  26 1
M  ZZM  27 5
M  ZZI  27 1
M  ZZM  28 5
M  ZZI  28 1
M  ZZM  29 5
M  ZZI  29 1
M  ZZM  30 5
M  ZZI  30 1
M  END
> <IX>
1

> <NAME>
Cereblon_3MXF_30.pdb

> <Score>
-20.662938

> <Natom>
30

> <Nflex>
1

> <Hbond>
-4.644812

> <Hphob>
-3.599505

> <VwInt>
-22.003641

> <Dsolv>
13.191963

> <SolEl>
5.997726

> <Eintl>
1.752123

> <RecConf>
ND

> <projPath>
Cereblon_maps/

> <NAME_>
Cereblon_3MXF_30.pdb

$$$$
