Cereblon_6IQ5_4.pdb
  MOLSOFT 04032206283D

 29 31  0  0  1  0  0  0  0  0999 V2000
   79.0052   42.4915   42.6717 C   0  0  0  0  0  0  0  0  0  0  0  0
   78.1862   42.1965   41.5962 C   0  0  0  0  0  0  0  0  0  0  0  0
   77.2687   41.0781   41.4110 C   0  0  0  0  0  0  0  0  0  0  0  0
   77.0884   40.2179   42.2591 O   0  0  0  0  0  0  0  0  0  0  0  0
   76.7279   41.2202   40.1462 N   0  0  0  0  0  0  0  0  0  0  0  0
   77.2236   42.3475   39.5231 C   0  0  0  0  0  0  0  0  0  0  0  0
   76.9876   42.7648   38.3966 O   0  0  0  0  0  0  0  0  0  0  0  0
   78.1584   42.9595   40.4677 C   0  0  0  0  0  0  0  0  0  0  0  0
   78.9568   44.0760   40.3254 C   0  0  0  0  0  0  0  0  0  0  0  0
   79.7996   44.3856   41.3871 C   0  0  0  0  0  0  0  0  0  0  0  0
   79.8240   43.6072   42.5448 C   0  0  0  0  0  0  0  0  0  0  0  0
   75.7196   40.3652   39.5133 C   0  0  2  0  0  0  0  0  0  0  0  0
   74.3396   40.9336   39.8032 C   0  0  0  0  0  0  0  0  0  0  0  0
   74.1526   42.1198   40.0174 O   0  0  0  0  0  0  0  0  0  0  0  0
   73.2894   40.0515   39.7274 N   0  0  0  0  0  0  0  0  0  0  0  0
   73.3275   38.7055   39.4571 C   0  0  0  0  0  0  0  0  0  0  0  0
   72.3121   38.0315   39.4008 O   0  0  0  0  0  0  0  0  0  0  0  0
   74.6923   38.1245   39.1796 C   0  0  0  0  0  0  0  0  0  0  0  0
   75.7746   38.8950   39.9154 C   0  0  0  0  0  0  0  0  0  0  0  0
   79.0170   41.8761   43.5670 H   0  0  0  0  0  0  0  0  0  0  0  0
   78.9257   44.6773   39.4247 H   0  0  0  0  0  0  0  0  0  0  0  0
   80.4479   45.2514   41.3170 H   0  0  0  0  0  0  0  0  0  0  0  0
   80.4916   43.8762   43.3584 H   0  0  0  0  0  0  0  0  0  0  0  0
   75.8587   40.4527   38.4338 H   0  0  0  0  0  0  0  0  0  0  0  0
   72.3709   40.4452   39.8898 H   0  0  0  0  0  0  0  0  0  0  0  0
   74.7002   37.0790   39.5035 H   0  0  0  0  0  0  0  0  0  0  0  0
   74.8532   38.1459   38.0974 H   0  0  0  0  0  0  0  0  0  0  0  0
   75.6119   38.7758   40.9902 H   0  0  0  0  0  0  0  0  0  0  0  0
   76.7604   38.4736   39.6930 H   0  0  0  0  0  0  0  0  0  0  0  0
  1 20  1  0  0  0  0
  1  2  1  0  0  0  0
  1 11  2  0  0  0  0
  2  3  1  0  0  0  0
  2  8  2  0  0  0  0
  3  4  2  0  0  0  0
  3  5  1  0  0  0  0
  5  6  1  0  0  0  0
 12  5  1  0  0  0  0
  6  7  2  0  0  0  0
  6  8  1  0  0  0  0
  8  9  1  0  0  0  0
  9 21  1  0  0  0  0
  9 10  2  0  0  0  0
 10 22  1  0  0  0  0
 10 11  1  0  0  0  0
 11 23  1  0  0  0  0
 12 24  1  0  0  0  0
 12 13  1  0  0  0  0
 12 19  1  0  0  0  0
 13 14  2  0  0  0  0
 13 15  1  0  0  0  0
 15 25  1  0  0  0  0
 15 16  1  0  0  0  0
 16 17  2  0  0  0  0
 16 18  1  0  0  0  0
 18 26  1  0  0  0  0
 18 27  1  0  0  0  0
 18 19  1  0  0  0  0
 19 28  1  0  0  0  0
 19 29  1  0  0  0  0
M  ZZC   1 c1
M  ZZC   2 c2
M  ZZC   3 c3
M  ZZC   4 o1
M  ZZC   5 n1
M  ZZC   6 c4
M  ZZC   7 o2
M  ZZC   8 c5
M  ZZC   9 c6
M  ZZC  10 c7
M  ZZC  11 c8
M  ZZC  12 c9
M  ZZC  13 c10
M  ZZC  14 o3
M  ZZC  15 n2
M  ZZC  16 c11
M  ZZC  17 o4
M  ZZC  18 c12
M  ZZC  19 c13
M  ZZC  20 h11
M  ZZC  21 h61
M  ZZC  22 h71
M  ZZC  23 h81
M  ZZC  24 h91
M  ZZC  25 h21
M  ZZC  26 h121
M  ZZC  27 h122
M  ZZC  28 h131
M  ZZC  29 h132
M  ZZM   1 37
M  ZZI   1 125
M  ZZM   2 37
M  ZZI   2 124
M  ZZM   3 3
M  ZZI   3 121
M  ZZM   4 7
M  ZZI   4 81
M  ZZM   5 10
M  ZZI   5 192
M  ZZM   6 3
M  ZZI   6 121
M  ZZM   7 7
M  ZZI   7 81
M  ZZM   8 37
M  ZZI   8 124
M  ZZM   9 37
M  ZZI   9 125
M  ZZM  10 37
M  ZZI  10 125
M  ZZM  11 37
M  ZZI  11 125
M  ZZM  12 1
M  ZZI  12 113
M  ZZM  13 3
M  ZZI  13 121
M  ZZM  14 7
M  ZZI  14 81
M  ZZM  15 10
M  ZZI  15 191
M  ZZM  16 3
M  ZZI  16 121
M  ZZM  17 7
M  ZZI  17 81
M  ZZM  18 1
M  ZZI  18 112
M  ZZM  19 1
M  ZZI  19 112
M  ZZM  20 5
M  ZZI  20 1
M  ZZM  21 5
M  ZZI  21 1
M  ZZM  22 5
M  ZZI  22 1
M  ZZM  23 5
M  ZZI  23 1
M  ZZM  24 5
M  ZZI  24 1
M  ZZM  25 28
M  ZZI  25 11
M  ZZM  26 5
M  ZZI  26 1
M  ZZM  27 5
M  ZZI  27 1
M  ZZM  28 5
M  ZZI  28 1
M  ZZM  29 5
M  ZZI  29 1
M  END
> <IX>
1

> <NAME>
Cereblon_6IQ5_4.pdb

> <Score>
-19.465016

> <Natom>
29

> <Nflex>
1

> <Hbond>
-3.369823

> <Hphob>
-3.561522

> <VwInt>
-22.692259

> <Dsolv>
11.927953

> <SolEl>
5.608872

> <Eintl>
1.48549

> <RecConf>
ND

> <projPath>
Cereblon_maps/

> <NAME_>
Cereblon_6IQ5_4.pdb

$$$$
