Cereblon_6GFZ_6.pdb
  MOLSOFT 04032206283D

 31 33  0  0  1  0  0  0  0  0999 V2000
   69.8652   40.5200   38.0952 N   0  0  0  0  0  0  0  0  0  0  0  0
   70.7495   41.3691   37.4081 C   0  0  0  0  0  0  0  0  0  0  0  0
   72.1209   41.3541   37.6296 C   0  0  0  0  0  0  0  0  0  0  0  0
   72.9190   40.5406   38.5499 C   0  0  0  0  0  0  0  0  0  0  0  0
   72.4366   39.7459   39.3443 O   0  0  0  0  0  0  0  0  0  0  0  0
   74.2408   40.8836   38.3315 N   0  0  0  0  0  0  0  0  0  0  0  0
   74.3353   41.8856   37.3875 C   0  0  0  0  0  0  0  0  0  0  0  0
   75.3347   42.4421   36.9533 O   0  0  0  0  0  0  0  0  0  0  0  0
   72.9694   42.1841   36.9619 C   0  0  0  0  0  0  0  0  0  0  0  0
   72.5115   43.1386   36.0754 C   0  0  0  0  0  0  0  0  0  0  0  0
   71.1415   43.2195   35.8763 C   0  0  0  0  0  0  0  0  0  0  0  0
   70.2767   42.3518   36.5397 C   0  0  0  0  0  0  0  0  0  0  0  0
   75.4229   40.3863   39.0529 C   0  0  1  0  0  0  0  0  0  0  0  0
   75.7139   41.3070   40.2176 C   0  0  0  0  0  0  0  0  0  0  0  0
   75.2711   42.4427   40.2604 O   0  0  0  0  0  0  0  0  0  0  0  0
   76.5638   40.8068   41.1775 N   0  0  0  0  0  0  0  0  0  0  0  0
   77.0745   39.5353   41.2764 C   0  0  0  0  0  0  0  0  0  0  0  0
   77.8516   39.2193   42.1622 O   0  0  0  0  0  0  0  0  0  0  0  0
   76.6553   38.5613   40.2024 C   0  0  0  0  0  0  0  0  0  0  0  0
   75.3295   38.9551   39.5697 C   0  0  0  0  0  0  0  0  0  0  0  0
   68.9131   40.4102   37.7354 H   0  0  0  0  0  0  0  0  0  0  0  0
   70.2700   39.7768   38.6703 H   0  0  0  0  0  0  0  0  0  0  0  0
   73.1881   43.8181   35.5800 H   0  0  0  0  0  0  0  0  0  0  0  0
   70.7405   43.9717   35.2028 H   0  0  0  0  0  0  0  0  0  0  0  0
   69.2095   42.4557   36.3754 H   0  0  0  0  0  0  0  0  0  0  0  0
   76.2863   40.4884   38.3893 H   0  0  0  0  0  0  0  0  0  0  0  0
   76.8343   41.4447   41.9156 H   0  0  0  0  0  0  0  0  0  0  0  0
   77.4557   38.5264   39.4577 H   0  0  0  0  0  0  0  0  0  0  0  0
   76.5688   37.5661   40.6498 H   0  0  0  0  0  0  0  0  0  0  0  0
   75.0778   38.2664   38.7572 H   0  0  0  0  0  0  0  0  0  0  0  0
   74.5402   38.8640   40.3231 H   0  0  0  0  0  0  0  0  0  0  0  0
  1  2  1  0  0  0  0
  1 21  1  0  0  0  0
  1 22  1  0  0  0  0
  2  3  1  0  0  0  0
  2 12  2  0  0  0  0
  3  9  2  0  0  0  0
  3  4  1  0  0  0  0
  4  5  2  0  0  0  0
  4  6  1  0  0  0  0
  6  7  1  0  0  0  0
 13  6  1  0  0  0  0
  7  8  2  0  0  0  0
  7  9  1  0  0  0  0
  9 10  1  0  0  0  0
 10 23  1  0  0  0  0
 10 11  2  0  0  0  0
 11 12  1  0  0  0  0
 11 24  1  0  0  0  0
 12 25  1  0  0  0  0
 13 26  1  0  0  0  0
 13 14  1  0  0  0  0
 13 20  1  0  0  0  0
 14 15  2  0  0  0  0
 14 16  1  0  0  0  0
 16 27  1  0  0  0  0
 16 17  1  0  0  0  0
 17 18  2  0  0  0  0
 17 19  1  0  0  0  0
 19 28  1  0  0  0  0
 19 29  1  0  0  0  0
 19 20  1  0  0  0  0
 20 30  1  0  0  0  0
 20 31  1  0  0  0  0
M  ZZC   1 n1
M  ZZC   2 c1
M  ZZC   3 c2
M  ZZC   4 c3
M  ZZC   5 o1
M  ZZC   6 n2
M  ZZC   7 c4
M  ZZC   8 o2
M  ZZC   9 c5
M  ZZC  10 c6
M  ZZC  11 c7
M  ZZC  12 c8
M  ZZC  13 c9
M  ZZC  14 c10
M  ZZC  15 o3
M  ZZC  16 n3
M  ZZC  17 c11
M  ZZC  18 o4
M  ZZC  19 c12
M  ZZC  20 c13
M  ZZC  21 h11
M  ZZC  22 h12
M  ZZC  23 h61
M  ZZC  24 h71
M  ZZC  25 h81
M  ZZC  26 h91
M  ZZC  27 h31
M  ZZC  28 h121
M  ZZC  29 h122
M  ZZC  30 h131
M  ZZC  31 h132
M  ZZM   1 40
M  ZZI   1 224
M  ZZM   2 37
M  ZZI   2 124
M  ZZM   3 37
M  ZZI   3 124
M  ZZM   4 3
M  ZZI   4 121
M  ZZM   5 7
M  ZZI   5 81
M  ZZM   6 10
M  ZZI   6 192
M  ZZM   7 3
M  ZZI   7 121
M  ZZM   8 7
M  ZZI   8 81
M  ZZM   9 37
M  ZZI   9 124
M  ZZM  10 37
M  ZZI  10 125
M  ZZM  11 37
M  ZZI  11 125
M  ZZM  12 37
M  ZZI  12 125
M  ZZM  13 1
M  ZZI  13 113
M  ZZM  14 3
M  ZZI  14 121
M  ZZM  15 7
M  ZZI  15 81
M  ZZM  16 10
M  ZZI  16 191
M  ZZM  17 3
M  ZZI  17 121
M  ZZM  18 7
M  ZZI  18 81
M  ZZM  19 1
M  ZZI  19 112
M  ZZM  20 1
M  ZZI  20 112
M  ZZM  21 28
M  ZZI  21 11
M  ZZM  22 28
M  ZZI  22 11
M  ZZM  23 5
M  ZZI  23 1
M  ZZM  24 5
M  ZZI  24 1
M  ZZM  25 5
M  ZZI  25 1
M  ZZM  26 5
M  ZZI  26 1
M  ZZM  27 28
M  ZZI  27 11
M  ZZM  28 5
M  ZZI  28 1
M  ZZM  29 5
M  ZZI  29 1
M  ZZM  30 5
M  ZZI  30 1
M  ZZM  31 5
M  ZZI  31 1
M  END
> <IX>
1

> <NAME>
Cereblon_6GFZ_6.pdb

> <Score>
-9.22945

> <Natom>
31

> <Nflex>
1

> <Hbond>
-3.722422

> <Hphob>
-3.55151

> <VwInt>
-17.916313

> <Dsolv>
15.847151

> <SolEl>
10.127414

> <Eintl>
2.191077

> <RecConf>
ND

> <projPath>
Cereblon_maps/

> <NAME_>
Cereblon_6GFZ_6.pdb

$$$$
