Cereblon_1HWK_37.pdb
  MOLSOFT 04032206193D

 30 32  0  0  1  0  0  0  0  0999 V2000
   72.9830   37.2896   34.1437 C   0  0  0  0  0  0  0  0  0  0  0  0
   72.6312   38.6062   34.3872 C   0  0  0  0  0  0  0  0  0  0  0  0
   72.5893   39.5054   33.3583 C   0  0  0  0  0  0  0  0  0  0  0  0
   72.1428   40.7948   33.8921 C   0  0  0  0  0  0  0  0  0  0  0  0
   71.9575   41.7946   33.2123 O   0  0  0  0  0  0  0  0  0  0  0  0
   71.9866   40.6261   35.2559 N   0  0  0  0  0  0  0  0  0  0  0  0
   71.5797   41.7010   36.1751 C   0  0  1  0  0  0  0  0  0  0  0  0
   71.2420   41.2010   37.5821 C   0  0  0  0  0  0  0  0  0  0  0  0
   70.1874   40.6325   37.8288 O   0  0  0  0  0  0  0  0  0  0  0  0
   72.2217   41.3447   38.5424 N   0  0  0  0  0  0  0  0  0  0  0  0
   73.4458   41.9637   38.4243 C   0  0  0  0  0  0  0  0  0  0  0  0
   74.1589   42.1855   39.3913 O   0  0  0  0  0  0  0  0  0  0  0  0
   73.8413   42.3614   37.0258 C   0  0  0  0  0  0  0  0  0  0  0  0
   72.6181   42.8177   36.2541 C   0  0  0  0  0  0  0  0  0  0  0  0
   72.2542   39.2578   35.6679 C   0  0  0  0  0  0  0  0  0  0  0  0
   72.9314   39.1803   32.0587 C   0  0  0  0  0  0  0  0  0  0  0  0
   73.2860   37.8640   31.8067 C   0  0  0  0  0  0  0  0  0  0  0  0
   73.2943   36.9292   32.8383 C   0  0  0  0  0  0  0  0  0  0  0  0
   73.0041   36.5548   34.9426 H   0  0  0  0  0  0  0  0  0  0  0  0
   70.6672   42.1392   35.7543 H   0  0  0  0  0  0  0  0  0  0  0  0
   71.9729   41.0394   39.4740 H   0  0  0  0  0  0  0  0  0  0  0  0
   74.5715   43.1741   37.0836 H   0  0  0  0  0  0  0  0  0  0  0  0
   74.3284   41.5127   36.5400 H   0  0  0  0  0  0  0  0  0  0  0  0
   72.1800   43.6886   36.7550 H   0  0  0  0  0  0  0  0  0  0  0  0
   72.9158   43.1501   35.2570 H   0  0  0  0  0  0  0  0  0  0  0  0
   71.3460   38.8117   36.0874 H   0  0  0  0  0  0  0  0  0  0  0  0
   73.0807   39.2416   36.3865 H   0  0  0  0  0  0  0  0  0  0  0  0
   72.9185   39.9219   31.2685 H   0  0  0  0  0  0  0  0  0  0  0  0
   73.5486   37.5611   30.7976 H   0  0  0  0  0  0  0  0  0  0  0  0
   73.5415   35.8977   32.6173 H   0  0  0  0  0  0  0  0  0  0  0  0
  1 19  1  0  0  0  0
  1 18  2  0  0  0  0
  1  2  1  0  0  0  0
  2  3  2  0  0  0  0
  2 15  1  0  0  0  0
  3 16  1  0  0  0  0
  3  4  1  0  0  0  0
  4  6  1  0  0  0  0
  4  5  2  0  0  0  0
  6 15  1  0  0  0  0
  7  6  1  0  0  0  0
  7 20  1  0  0  0  0
  7  8  1  0  0  0  0
  7 14  1  0  0  0  0
  8  9  2  0  0  0  0
  8 10  1  0  0  0  0
 10 21  1  0  0  0  0
 10 11  1  0  0  0  0
 11 12  2  0  0  0  0
 11 13  1  0  0  0  0
 13 22  1  0  0  0  0
 13 23  1  0  0  0  0
 13 14  1  0  0  0  0
 14 24  1  0  0  0  0
 14 25  1  0  0  0  0
 15 26  1  0  0  0  0
 15 27  1  0  0  0  0
 16 17  2  0  0  0  0
 16 28  1  0  0  0  0
 17 18  1  0  0  0  0
 17 29  1  0  0  0  0
 18 30  1  0  0  0  0
M  ZZC   1 c1
M  ZZC   2 c2
M  ZZC   3 c3
M  ZZC   4 c4
M  ZZC   5 o1
M  ZZC   6 n1
M  ZZC   7 c5
M  ZZC   8 c6
M  ZZC   9 o2
M  ZZC  10 n2
M  ZZC  11 c7
M  ZZC  12 o3
M  ZZC  13 c8
M  ZZC  14 c9
M  ZZC  15 c10
M  ZZC  16 c11
M  ZZC  17 c12
M  ZZC  18 c13
M  ZZC  19 h11
M  ZZC  20 h51
M  ZZC  21 h21
M  ZZC  22 h81
M  ZZC  23 h82
M  ZZC  24 h91
M  ZZC  25 h92
M  ZZC  26 h101
M  ZZC  27 h102
M  ZZC  28 h111
M  ZZC  29 h121
M  ZZC  30 h131
M  ZZM   1 37
M  ZZI   1 125
M  ZZM   2 37
M  ZZI   2 124
M  ZZM   3 37
M  ZZI   3 124
M  ZZM   4 3
M  ZZI   4 121
M  ZZM   5 7
M  ZZI   5 81
M  ZZM   6 10
M  ZZI   6 192
M  ZZM   7 1
M  ZZI   7 113
M  ZZM   8 3
M  ZZI   8 121
M  ZZM   9 7
M  ZZI   9 81
M  ZZM  10 10
M  ZZI  10 191
M  ZZM  11 3
M  ZZI  11 121
M  ZZM  12 7
M  ZZI  12 81
M  ZZM  13 1
M  ZZI  13 112
M  ZZM  14 1
M  ZZI  14 112
M  ZZM  15 1
M  ZZI  15 112
M  ZZM  16 37
M  ZZI  16 125
M  ZZM  17 37
M  ZZI  17 125
M  ZZM  18 37
M  ZZI  18 125
M  ZZM  19 5
M  ZZI  19 1
M  ZZM  20 5
M  ZZI  20 1
M  ZZM  21 28
M  ZZI  21 11
M  ZZM  22 5
M  ZZI  22 1
M  ZZM  23 5
M  ZZI  23 1
M  ZZM  24 5
M  ZZI  24 1
M  ZZM  25 5
M  ZZI  25 1
M  ZZM  26 5
M  ZZI  26 1
M  ZZM  27 5
M  ZZI  27 1
M  ZZM  28 5
M  ZZI  28 1
M  ZZM  29 5
M  ZZI  29 1
M  ZZM  30 5
M  ZZI  30 1
M  END
> <IX>
1

> <NAME>
Cereblon_1HWK_37.pdb

> <Score>
-9.575486

> <Natom>
30

> <Nflex>
1

> <Hbond>
-2.279596

> <Hphob>
-3.719658

> <VwInt>
-18.293953

> <Dsolv>
13.814807

> <SolEl>
6.48648

> <Eintl>
2.893058

> <RecConf>
ND

> <projPath>
Cereblon_maps/

> <NAME_>
Cereblon_1HWK_37.pdb

$$$$
