Cereblon_5LLI_10.pdb
  MOLSOFT 04032206263D

 31 33  0  0  1  0  0  0  0  0999 V2000
   78.0665   40.6323   42.6524 N   0  0  0  0  0  0  0  0  0  0  0  0
   78.1210   41.7222   41.7684 C   0  0  0  0  0  0  0  0  0  0  0  0
   77.2952   41.8175   40.6571 C   0  0  0  0  0  0  0  0  0  0  0  0
   76.2266   40.9294   40.2051 C   0  0  0  0  0  0  0  0  0  0  0  0
   75.9759   39.8429   40.7075 O   0  0  0  0  0  0  0  0  0  0  0  0
   75.6070   41.5604   39.1421 N   0  0  0  0  0  0  0  0  0  0  0  0
   76.3351   42.6692   38.7606 C   0  0  0  0  0  0  0  0  0  0  0  0
   76.2332   43.3697   37.7647 O   0  0  0  0  0  0  0  0  0  0  0  0
   77.3716   42.8525   39.7762 C   0  0  0  0  0  0  0  0  0  0  0  0
   78.3140   43.8561   39.9050 C   0  0  0  0  0  0  0  0  0  0  0  0
   79.1809   43.7701   40.9866 C   0  0  0  0  0  0  0  0  0  0  0  0
   79.0822   42.7220   41.9034 C   0  0  0  0  0  0  0  0  0  0  0  0
   74.3595   41.0479   38.5467 C   0  0  1  0  0  0  0  0  0  0  0  0
   73.2226   41.3239   39.5218 C   0  0  0  0  0  0  0  0  0  0  0  0
   73.4011   41.6109   40.6931 O   0  0  0  0  0  0  0  0  0  0  0  0
   71.9522   41.1763   39.0256 N   0  0  0  0  0  0  0  0  0  0  0  0
   71.5725   40.9343   37.7310 C   0  0  0  0  0  0  0  0  0  0  0  0
   70.4100   40.6884   37.4476 O   0  0  0  0  0  0  0  0  0  0  0  0
   72.6873   40.9338   36.7054 C   0  0  0  0  0  0  0  0  0  0  0  0
   73.9264   41.6602   37.2143 C   0  0  0  0  0  0  0  0  0  0  0  0
   78.6441   40.6209   43.4918 H   0  0  0  0  0  0  0  0  0  0  0  0
   77.2677   39.9984   42.5973 H   0  0  0  0  0  0  0  0  0  0  0  0
   78.3731   44.6740   39.1954 H   0  0  0  0  0  0  0  0  0  0  0  0
   79.9395   44.5339   41.1265 H   0  0  0  0  0  0  0  0  0  0  0  0
   79.7722   42.6902   42.7407 H   0  0  0  0  0  0  0  0  0  0  0  0
   74.4573   39.9588   38.4670 H   0  0  0  0  0  0  0  0  0  0  0  0
   71.2020   41.2740   39.6973 H   0  0  0  0  0  0  0  0  0  0  0  0
   72.9236   39.8931   36.4596 H   0  0  0  0  0  0  0  0  0  0  0  0
   72.3228   41.4224   35.7959 H   0  0  0  0  0  0  0  0  0  0  0  0
   74.7193   41.6024   36.4674 H   0  0  0  0  0  0  0  0  0  0  0  0
   73.6954   42.7249   37.3381 H   0  0  0  0  0  0  0  0  0  0  0  0
  1  2  1  0  0  0  0
  1 21  1  0  0  0  0
  1 22  1  0  0  0  0
  2  3  1  0  0  0  0
  2 12  2  0  0  0  0
  3  9  2  0  0  0  0
  3  4  1  0  0  0  0
  4  5  2  0  0  0  0
  4  6  1  0  0  0  0
  6  7  1  0  0  0  0
 13  6  1  0  0  0  0
  7  8  2  0  0  0  0
  7  9  1  0  0  0  0
  9 10  1  0  0  0  0
 10 23  1  0  0  0  0
 10 11  2  0  0  0  0
 11 12  1  0  0  0  0
 11 24  1  0  0  0  0
 12 25  1  0  0  0  0
 13 26  1  0  0  0  0
 13 14  1  0  0  0  0
 13 20  1  0  0  0  0
 14 15  2  0  0  0  0
 14 16  1  0  0  0  0
 16 27  1  0  0  0  0
 16 17  1  0  0  0  0
 17 18  2  0  0  0  0
 17 19  1  0  0  0  0
 19 28  1  0  0  0  0
 19 29  1  0  0  0  0
 19 20  1  0  0  0  0
 20 30  1  0  0  0  0
 20 31  1  0  0  0  0
M  ZZC   1 n1
M  ZZC   2 c1
M  ZZC   3 c2
M  ZZC   4 c3
M  ZZC   5 o1
M  ZZC   6 n2
M  ZZC   7 c4
M  ZZC   8 o2
M  ZZC   9 c5
M  ZZC  10 c6
M  ZZC  11 c7
M  ZZC  12 c8
M  ZZC  13 c9
M  ZZC  14 c10
M  ZZC  15 o3
M  ZZC  16 n3
M  ZZC  17 c11
M  ZZC  18 o4
M  ZZC  19 c12
M  ZZC  20 c13
M  ZZC  21 h11
M  ZZC  22 h12
M  ZZC  23 h61
M  ZZC  24 h71
M  ZZC  25 h81
M  ZZC  26 h91
M  ZZC  27 h31
M  ZZC  28 h121
M  ZZC  29 h122
M  ZZC  30 h131
M  ZZC  31 h132
M  ZZM   1 40
M  ZZI   1 224
M  ZZM   2 37
M  ZZI   2 124
M  ZZM   3 37
M  ZZI   3 124
M  ZZM   4 3
M  ZZI   4 121
M  ZZM   5 7
M  ZZI   5 81
M  ZZM   6 10
M  ZZI   6 192
M  ZZM   7 3
M  ZZI   7 121
M  ZZM   8 7
M  ZZI   8 81
M  ZZM   9 37
M  ZZI   9 124
M  ZZM  10 37
M  ZZI  10 125
M  ZZM  11 37
M  ZZI  11 125
M  ZZM  12 37
M  ZZI  12 125
M  ZZM  13 1
M  ZZI  13 113
M  ZZM  14 3
M  ZZI  14 121
M  ZZM  15 7
M  ZZI  15 81
M  ZZM  16 10
M  ZZI  16 191
M  ZZM  17 3
M  ZZI  17 121
M  ZZM  18 7
M  ZZI  18 81
M  ZZM  19 1
M  ZZI  19 112
M  ZZM  20 1
M  ZZI  20 112
M  ZZM  21 28
M  ZZI  21 11
M  ZZM  22 28
M  ZZI  22 11
M  ZZM  23 5
M  ZZI  23 1
M  ZZM  24 5
M  ZZI  24 1
M  ZZM  25 5
M  ZZI  25 1
M  ZZM  26 5
M  ZZI  26 1
M  ZZM  27 28
M  ZZI  27 11
M  ZZM  28 5
M  ZZI  28 1
M  ZZM  29 5
M  ZZI  29 1
M  ZZM  30 5
M  ZZI  30 1
M  ZZM  31 5
M  ZZI  31 1
M  END
> <IX>
1

> <NAME>
Cereblon_5LLI_10.pdb

> <Score>
-14.982388

> <Natom>
31

> <Nflex>
1

> <Hbond>
-2.768641

> <Hphob>
-3.713228

> <VwInt>
-27.02311

> <Dsolv>
17.191866

> <SolEl>
6.823271

> <Eintl>
5.893312

> <RecConf>
ND

> <projPath>
Cereblon_maps/

> <NAME_>
Cereblon_5LLI_10.pdb

$$$$
