Cereblon_3HLL_3.pdb
  MOLSOFT 04032206213D

 31 33  0  0  1  0  0  0  0  0999 V2000
   78.8161   41.6816   43.8149 N   0  0  0  0  0  0  0  0  0  0  0  0
   78.9040   42.4295   42.6306 C   0  0  0  0  0  0  0  0  0  0  0  0
   78.0998   42.1611   41.5359 C   0  0  0  0  0  0  0  0  0  0  0  0
   77.1782   41.0508   41.3306 C   0  0  0  0  0  0  0  0  0  0  0  0
   76.9950   40.1709   42.1588 O   0  0  0  0  0  0  0  0  0  0  0  0
   76.6454   41.2123   40.0671 N   0  0  0  0  0  0  0  0  0  0  0  0
   77.1663   42.3326   39.4522 C   0  0  0  0  0  0  0  0  0  0  0  0
   76.9531   42.7538   38.3227 O   0  0  0  0  0  0  0  0  0  0  0  0
   78.0973   42.9293   40.4112 C   0  0  0  0  0  0  0  0  0  0  0  0
   78.9091   44.0382   40.2890 C   0  0  0  0  0  0  0  0  0  0  0  0
   79.7263   44.3385   41.3727 C   0  0  0  0  0  0  0  0  0  0  0  0
   79.7128   43.5575   42.5300 C   0  0  0  0  0  0  0  0  0  0  0  0
   75.6256   40.3754   39.4313 C   0  0  2  0  0  0  0  0  0  0  0  0
   74.2542   40.9533   39.7365 C   0  0  0  0  0  0  0  0  0  0  0  0
   74.0834   42.1337   39.9924 O   0  0  0  0  0  0  0  0  0  0  0  0
   73.1939   40.0872   39.6251 N   0  0  0  0  0  0  0  0  0  0  0  0
   73.2191   38.7492   39.3142 C   0  0  0  0  0  0  0  0  0  0  0  0
   72.1945   38.0951   39.2088 O   0  0  0  0  0  0  0  0  0  0  0  0
   74.5821   38.1513   39.0586 C   0  0  0  0  0  0  0  0  0  0  0  0
   75.6602   38.9011   39.8212 C   0  0  0  0  0  0  0  0  0  0  0  0
   79.5461   41.7723   44.5183 H   0  0  0  0  0  0  0  0  0  0  0  0
   78.3031   40.7989   43.7854 H   0  0  0  0  0  0  0  0  0  0  0  0
   78.9020   44.6447   39.3910 H   0  0  0  0  0  0  0  0  0  0  0  0
   80.3769   45.2048   41.3262 H   0  0  0  0  0  0  0  0  0  0  0  0
   80.3472   43.8381   43.3652 H   0  0  0  0  0  0  0  0  0  0  0  0
   75.7595   40.4749   38.3529 H   0  0  0  0  0  0  0  0  0  0  0  0
   72.2786   40.4887   39.7869 H   0  0  0  0  0  0  0  0  0  0  0  0
   74.5683   37.1034   39.3747 H   0  0  0  0  0  0  0  0  0  0  0  0
   74.7682   38.1777   37.9804 H   0  0  0  0  0  0  0  0  0  0  0  0
   75.4764   38.7739   40.8920 H   0  0  0  0  0  0  0  0  0  0  0  0
   76.6450   38.4706   39.6132 H   0  0  0  0  0  0  0  0  0  0  0  0
  1  2  1  0  0  0  0
  1 21  1  0  0  0  0
  1 22  1  0  0  0  0
  2  3  1  0  0  0  0
  2 12  2  0  0  0  0
  3  9  2  0  0  0  0
  3  4  1  0  0  0  0
  4  5  2  0  0  0  0
  4  6  1  0  0  0  0
  6  7  1  0  0  0  0
 13  6  1  0  0  0  0
  7  8  2  0  0  0  0
  7  9  1  0  0  0  0
  9 10  1  0  0  0  0
 10 23  1  0  0  0  0
 10 11  2  0  0  0  0
 11 12  1  0  0  0  0
 11 24  1  0  0  0  0
 12 25  1  0  0  0  0
 13 26  1  0  0  0  0
 13 14  1  0  0  0  0
 13 20  1  0  0  0  0
 14 15  2  0  0  0  0
 14 16  1  0  0  0  0
 16 27  1  0  0  0  0
 16 17  1  0  0  0  0
 17 18  2  0  0  0  0
 17 19  1  0  0  0  0
 19 28  1  0  0  0  0
 19 29  1  0  0  0  0
 19 20  1  0  0  0  0
 20 30  1  0  0  0  0
 20 31  1  0  0  0  0
M  ZZC   1 n1
M  ZZC   2 c1
M  ZZC   3 c2
M  ZZC   4 c3
M  ZZC   5 o1
M  ZZC   6 n2
M  ZZC   7 c4
M  ZZC   8 o2
M  ZZC   9 c5
M  ZZC  10 c6
M  ZZC  11 c7
M  ZZC  12 c8
M  ZZC  13 c9
M  ZZC  14 c10
M  ZZC  15 o3
M  ZZC  16 n3
M  ZZC  17 c11
M  ZZC  18 o4
M  ZZC  19 c12
M  ZZC  20 c13
M  ZZC  21 h11
M  ZZC  22 h12
M  ZZC  23 h61
M  ZZC  24 h71
M  ZZC  25 h81
M  ZZC  26 h91
M  ZZC  27 h31
M  ZZC  28 h121
M  ZZC  29 h122
M  ZZC  30 h131
M  ZZC  31 h132
M  ZZM   1 40
M  ZZI   1 224
M  ZZM   2 37
M  ZZI   2 124
M  ZZM   3 37
M  ZZI   3 124
M  ZZM   4 3
M  ZZI   4 121
M  ZZM   5 7
M  ZZI   5 81
M  ZZM   6 10
M  ZZI   6 192
M  ZZM   7 3
M  ZZI   7 121
M  ZZM   8 7
M  ZZI   8 81
M  ZZM   9 37
M  ZZI   9 124
M  ZZM  10 37
M  ZZI  10 125
M  ZZM  11 37
M  ZZI  11 125
M  ZZM  12 37
M  ZZI  12 125
M  ZZM  13 1
M  ZZI  13 113
M  ZZM  14 3
M  ZZI  14 121
M  ZZM  15 7
M  ZZI  15 81
M  ZZM  16 10
M  ZZI  16 191
M  ZZM  17 3
M  ZZI  17 121
M  ZZM  18 7
M  ZZI  18 81
M  ZZM  19 1
M  ZZI  19 112
M  ZZM  20 1
M  ZZI  20 112
M  ZZM  21 28
M  ZZI  21 11
M  ZZM  22 28
M  ZZI  22 11
M  ZZM  23 5
M  ZZI  23 1
M  ZZM  24 5
M  ZZI  24 1
M  ZZM  25 5
M  ZZI  25 1
M  ZZM  26 5
M  ZZI  26 1
M  ZZM  27 28
M  ZZI  27 11
M  ZZM  28 5
M  ZZI  28 1
M  ZZM  29 5
M  ZZI  29 1
M  ZZM  30 5
M  ZZI  30 1
M  ZZM  31 5
M  ZZI  31 1
M  END
> <IX>
1

> <NAME>
Cereblon_3HLL_3.pdb

> <Score>
-18.599319

> <Natom>
31

> <Nflex>
1

> <Hbond>
-3.671735

> <Hphob>
-3.593417

> <VwInt>
-24.358345

> <Dsolv>
15.168716

> <SolEl>
6.788219

> <Eintl>
1.665574

> <RecConf>
ND

> <projPath>
Cereblon_maps/

> <NAME_>
Cereblon_3HLL_3.pdb

$$$$
