Cereblon_3UE4_1.pdb
  MOLSOFT 04032206223D

 31 33  0  0  1  0  0  0  0  0999 V2000
   77.5372   41.8464   42.0299 N   0  0  0  0  0  0  0  0  0  0  0  0
   77.3080   40.5560   41.5293 C   0  0  0  0  0  0  0  0  0  0  0  0
   76.3623   40.2748   40.5496 C   0  0  0  0  0  0  0  0  0  0  0  0
   75.4435   41.1530   39.8157 C   0  0  0  0  0  0  0  0  0  0  0  0
   75.2825   42.3415   40.0450 O   0  0  0  0  0  0  0  0  0  0  0  0
   74.8021   40.3644   38.8855 N   0  0  0  0  0  0  0  0  0  0  0  0
   75.1208   39.0390   39.0699 C   0  0  0  0  0  0  0  0  0  0  0  0
   74.6458   38.0465   38.5372 O   0  0  0  0  0  0  0  0  0  0  0  0
   76.1504   39.0028   40.1049 C   0  0  0  0  0  0  0  0  0  0  0  0
   76.8254   37.9105   40.6149 C   0  0  0  0  0  0  0  0  0  0  0  0
   77.7350   38.1601   41.6309 C   0  0  0  0  0  0  0  0  0  0  0  0
   77.9566   39.4579   42.0872 C   0  0  0  0  0  0  0  0  0  0  0  0
   73.7528   40.8164   37.9683 C   0  0  2  0  0  0  0  0  0  0  0  0
   74.1787   42.0497   37.1752 C   0  0  0  0  0  0  0  0  0  0  0  0
   75.3453   42.3324   36.9408 O   0  0  0  0  0  0  0  0  0  0  0  0
   73.1490   42.8030   36.6593 N   0  0  0  0  0  0  0  0  0  0  0  0
   71.7943   42.6278   36.8144 C   0  0  0  0  0  0  0  0  0  0  0  0
   70.9826   43.3676   36.2793 O   0  0  0  0  0  0  0  0  0  0  0  0
   71.3700   41.4397   37.6453 C   0  0  0  0  0  0  0  0  0  0  0  0
   72.4260   41.0583   38.6729 C   0  0  0  0  0  0  0  0  0  0  0  0
   78.3291   42.0041   42.6495 H   0  0  0  0  0  0  0  0  0  0  0  0
   77.1799   42.6493   41.5102 H   0  0  0  0  0  0  0  0  0  0  0  0
   76.6423   36.9039   40.2502 H   0  0  0  0  0  0  0  0  0  0  0  0
   78.2766   37.3344   42.0827 H   0  0  0  0  0  0  0  0  0  0  0  0
   78.6630   39.6122   42.8973 H   0  0  0  0  0  0  0  0  0  0  0  0
   73.6079   40.0170   37.2324 H   0  0  0  0  0  0  0  0  0  0  0  0
   73.4180   43.6069   36.1091 H   0  0  0  0  0  0  0  0  0  0  0  0
   70.4343   41.6898   38.1534 H   0  0  0  0  0  0  0  0  0  0  0  0
   71.1707   40.6049   36.9655 H   0  0  0  0  0  0  0  0  0  0  0  0
   72.1094   40.1586   39.2108 H   0  0  0  0  0  0  0  0  0  0  0  0
   72.5316   41.8443   39.4277 H   0  0  0  0  0  0  0  0  0  0  0  0
  1  2  1  0  0  0  0
  1 21  1  0  0  0  0
  1 22  1  0  0  0  0
  2  3  1  0  0  0  0
  2 12  2  0  0  0  0
  3  9  2  0  0  0  0
  3  4  1  0  0  0  0
  4  5  2  0  0  0  0
  4  6  1  0  0  0  0
  6  7  1  0  0  0  0
 13  6  1  0  0  0  0
  7  8  2  0  0  0  0
  7  9  1  0  0  0  0
  9 10  1  0  0  0  0
 10 23  1  0  0  0  0
 10 11  2  0  0  0  0
 11 12  1  0  0  0  0
 11 24  1  0  0  0  0
 12 25  1  0  0  0  0
 13 26  1  0  0  0  0
 13 14  1  0  0  0  0
 13 20  1  0  0  0  0
 14 15  2  0  0  0  0
 14 16  1  0  0  0  0
 16 27  1  0  0  0  0
 16 17  1  0  0  0  0
 17 18  2  0  0  0  0
 17 19  1  0  0  0  0
 19 28  1  0  0  0  0
 19 29  1  0  0  0  0
 19 20  1  0  0  0  0
 20 30  1  0  0  0  0
 20 31  1  0  0  0  0
M  ZZC   1 n1
M  ZZC   2 c1
M  ZZC   3 c2
M  ZZC   4 c3
M  ZZC   5 o1
M  ZZC   6 n2
M  ZZC   7 c4
M  ZZC   8 o2
M  ZZC   9 c5
M  ZZC  10 c6
M  ZZC  11 c7
M  ZZC  12 c8
M  ZZC  13 c9
M  ZZC  14 c10
M  ZZC  15 o3
M  ZZC  16 n3
M  ZZC  17 c11
M  ZZC  18 o4
M  ZZC  19 c12
M  ZZC  20 c13
M  ZZC  21 h11
M  ZZC  22 h12
M  ZZC  23 h61
M  ZZC  24 h71
M  ZZC  25 h81
M  ZZC  26 h91
M  ZZC  27 h31
M  ZZC  28 h121
M  ZZC  29 h122
M  ZZC  30 h131
M  ZZC  31 h132
M  ZZM   1 40
M  ZZI   1 224
M  ZZM   2 37
M  ZZI   2 124
M  ZZM   3 37
M  ZZI   3 124
M  ZZM   4 3
M  ZZI   4 121
M  ZZM   5 7
M  ZZI   5 81
M  ZZM   6 10
M  ZZI   6 192
M  ZZM   7 3
M  ZZI   7 121
M  ZZM   8 7
M  ZZI   8 81
M  ZZM   9 37
M  ZZI   9 124
M  ZZM  10 37
M  ZZI  10 125
M  ZZM  11 37
M  ZZI  11 125
M  ZZM  12 37
M  ZZI  12 125
M  ZZM  13 1
M  ZZI  13 113
M  ZZM  14 3
M  ZZI  14 121
M  ZZM  15 7
M  ZZI  15 81
M  ZZM  16 10
M  ZZI  16 191
M  ZZM  17 3
M  ZZI  17 121
M  ZZM  18 7
M  ZZI  18 81
M  ZZM  19 1
M  ZZI  19 112
M  ZZM  20 1
M  ZZI  20 112
M  ZZM  21 28
M  ZZI  21 11
M  ZZM  22 28
M  ZZI  22 11
M  ZZM  23 5
M  ZZI  23 1
M  ZZM  24 5
M  ZZI  24 1
M  ZZM  25 5
M  ZZI  25 1
M  ZZM  26 5
M  ZZI  26 1
M  ZZM  27 28
M  ZZI  27 11
M  ZZM  28 5
M  ZZI  28 1
M  ZZM  29 5
M  ZZI  29 1
M  ZZM  30 5
M  ZZI  30 1
M  ZZM  31 5
M  ZZI  31 1
M  END
> <IX>
1

> <NAME>
Cereblon_3UE4_1.pdb

> <Score>
-14.785907

> <Natom>
31

> <Nflex>
1

> <Hbond>
-4.137988

> <Hphob>
-3.519055

> <VwInt>
-22.85936

> <Dsolv>
17.252762

> <SolEl>
8.488817

> <Eintl>
2.930231

> <RecConf>
ND

> <projPath>
Cereblon_maps/

> <NAME_>
Cereblon_3UE4_1.pdb

$$$$
