Cereblon_6VS3_18.pdb
  MOLSOFT 04032206293D

 31 33  0  0  1  0  0  0  0  0999 V2000
   81.6224   53.0825   19.7004 N   0  0  0  0  0  0  0  0  0  0  0  0
   81.9381   54.4468   19.7374 C   0  0  0  0  0  0  0  0  0  0  0  0
   81.2372   55.3424   20.5266 C   0  0  0  0  0  0  0  0  0  0  0  0
   80.0349   55.1294   21.3273 C   0  0  0  0  0  0  0  0  0  0  0  0
   79.4248   54.0714   21.3957 O   0  0  0  0  0  0  0  0  0  0  0  0
   79.7677   56.3294   21.9494 N   0  0  0  0  0  0  0  0  0  0  0  0
   80.6836   57.2943   21.5850 C   0  0  0  0  0  0  0  0  0  0  0  0
   80.7600   58.4694   21.9127 O   0  0  0  0  0  0  0  0  0  0  0  0
   81.6213   56.6410   20.6751 C   0  0  0  0  0  0  0  0  0  0  0  0
   82.7416   57.1528   20.0472 C   0  0  0  0  0  0  0  0  0  0  0  0
   83.4727   56.2714   19.2609 C   0  0  0  0  0  0  0  0  0  0  0  0
   83.0862   54.9367   19.1279 C   0  0  0  0  0  0  0  0  0  0  0  0
   78.6228   56.5142   22.8407 C   0  0  2  0  0  0  0  0  0  0  0  0
   77.4740   57.1903   22.1170 C   0  0  0  0  0  0  0  0  0  0  0  0
   77.3415   57.1835   20.9021 O   0  0  0  0  0  0  0  0  0  0  0  0
   76.5214   57.7385   22.9429 N   0  0  0  0  0  0  0  0  0  0  0  0
   76.4997   57.7898   24.3162 C   0  0  0  0  0  0  0  0  0  0  0  0
   75.5304   58.2089   24.9278 O   0  0  0  0  0  0  0  0  0  0  0  0
   77.7208   57.2495   25.0225 C   0  0  0  0  0  0  0  0  0  0  0  0
   78.9367   57.2886   24.1171 C   0  0  0  0  0  0  0  0  0  0  0  0
   82.0400   52.5357   18.9523 H   0  0  0  0  0  0  0  0  0  0  0  0
   80.6551   52.8485   19.9237 H   0  0  0  0  0  0  0  0  0  0  0  0
   83.0455   58.1876   20.1739 H   0  0  0  0  0  0  0  0  0  0  0  0
   84.3693   56.6206   18.7558 H   0  0  0  0  0  0  0  0  0  0  0  0
   83.6955   54.2635   18.5336 H   0  0  0  0  0  0  0  0  0  0  0  0
   78.2569   55.5171   23.1005 H   0  0  0  0  0  0  0  0  0  0  0  0
   75.7286   58.1579   22.4755 H   0  0  0  0  0  0  0  0  0  0  0  0
   77.9050   57.8483   25.9202 H   0  0  0  0  0  0  0  0  0  0  0  0
   77.5113   56.2236   25.3349 H   0  0  0  0  0  0  0  0  0  0  0  0
   79.1881   58.3312   23.8952 H   0  0  0  0  0  0  0  0  0  0  0  0
   79.7988   56.8559   24.6327 H   0  0  0  0  0  0  0  0  0  0  0  0
  1  2  1  0  0  0  0
  1 21  1  0  0  0  0
  1 22  1  0  0  0  0
  2  3  1  0  0  0  0
  2 12  2  0  0  0  0
  3  9  2  0  0  0  0
  3  4  1  0  0  0  0
  4  5  2  0  0  0  0
  4  6  1  0  0  0  0
  6  7  1  0  0  0  0
 13  6  1  0  0  0  0
  7  8  2  0  0  0  0
  7  9  1  0  0  0  0
  9 10  1  0  0  0  0
 10 23  1  0  0  0  0
 10 11  2  0  0  0  0
 11 12  1  0  0  0  0
 11 24  1  0  0  0  0
 12 25  1  0  0  0  0
 13 26  1  0  0  0  0
 13 14  1  0  0  0  0
 13 20  1  0  0  0  0
 14 15  2  0  0  0  0
 14 16  1  0  0  0  0
 16 27  1  0  0  0  0
 16 17  1  0  0  0  0
 17 18  2  0  0  0  0
 17 19  1  0  0  0  0
 19 28  1  0  0  0  0
 19 29  1  0  0  0  0
 19 20  1  0  0  0  0
 20 30  1  0  0  0  0
 20 31  1  0  0  0  0
M  ZZC   1 n1
M  ZZC   2 c1
M  ZZC   3 c2
M  ZZC   4 c3
M  ZZC   5 o1
M  ZZC   6 n2
M  ZZC   7 c4
M  ZZC   8 o2
M  ZZC   9 c5
M  ZZC  10 c6
M  ZZC  11 c7
M  ZZC  12 c8
M  ZZC  13 c9
M  ZZC  14 c10
M  ZZC  15 o3
M  ZZC  16 n3
M  ZZC  17 c11
M  ZZC  18 o4
M  ZZC  19 c12
M  ZZC  20 c13
M  ZZC  21 h11
M  ZZC  22 h12
M  ZZC  23 h61
M  ZZC  24 h71
M  ZZC  25 h81
M  ZZC  26 h91
M  ZZC  27 h31
M  ZZC  28 h121
M  ZZC  29 h122
M  ZZC  30 h131
M  ZZC  31 h132
M  ZZM   1 40
M  ZZI   1 224
M  ZZM   2 37
M  ZZI   2 124
M  ZZM   3 37
M  ZZI   3 124
M  ZZM   4 3
M  ZZI   4 121
M  ZZM   5 7
M  ZZI   5 81
M  ZZM   6 10
M  ZZI   6 192
M  ZZM   7 3
M  ZZI   7 121
M  ZZM   8 7
M  ZZI   8 81
M  ZZM   9 37
M  ZZI   9 124
M  ZZM  10 37
M  ZZI  10 125
M  ZZM  11 37
M  ZZI  11 125
M  ZZM  12 37
M  ZZI  12 125
M  ZZM  13 1
M  ZZI  13 113
M  ZZM  14 3
M  ZZI  14 121
M  ZZM  15 7
M  ZZI  15 81
M  ZZM  16 10
M  ZZI  16 191
M  ZZM  17 3
M  ZZI  17 121
M  ZZM  18 7
M  ZZI  18 81
M  ZZM  19 1
M  ZZI  19 112
M  ZZM  20 1
M  ZZI  20 112
M  ZZM  21 28
M  ZZI  21 11
M  ZZM  22 28
M  ZZI  22 11
M  ZZM  23 5
M  ZZI  23 1
M  ZZM  24 5
M  ZZI  24 1
M  ZZM  25 5
M  ZZI  25 1
M  ZZM  26 5
M  ZZI  26 1
M  ZZM  27 28
M  ZZI  27 11
M  ZZM  28 5
M  ZZI  28 1
M  ZZM  29 5
M  ZZI  29 1
M  ZZM  30 5
M  ZZI  30 1
M  ZZM  31 5
M  ZZI  31 1
M  END
> <IX>
1

> <NAME>
Cereblon_6VS3_18.pdb

> <Score>
-23.496716

> <Natom>
31

> <Nflex>
1

> <Hbond>
-4.545903

> <Hphob>
-3.378285

> <VwInt>
-24.647203

> <Dsolv>
13.948834

> <SolEl>
5.064244

> <Eintl>
0.851745

> <RecConf>
ND

> <projPath>
Cereblon_maps/

> <NAME_>
Cereblon_6VS3_18.pdb

$$$$
