Cereblon_3K6P_14.pdb
  MOLSOFT 04032206213D

 31 33  0  0  1  0  0  0  0  0999 V2000
   75.3850   36.6196   39.2029 N   0  0  0  0  0  0  0  0  0  0  0  0
   75.6543   37.8920   39.7308 C   0  0  0  0  0  0  0  0  0  0  0  0
   75.0183   39.0337   39.2682 C   0  0  0  0  0  0  0  0  0  0  0  0
   73.9606   39.1745   38.2675 C   0  0  0  0  0  0  0  0  0  0  0  0
   73.4448   38.2342   37.6793 O   0  0  0  0  0  0  0  0  0  0  0  0
   73.6993   40.5251   38.1559 N   0  0  0  0  0  0  0  0  0  0  0  0
   74.4582   41.2393   39.0660 C   0  0  0  0  0  0  0  0  0  0  0  0
   74.4496   42.4286   39.3431 O   0  0  0  0  0  0  0  0  0  0  0  0
   75.3285   40.2750   39.7304 C   0  0  0  0  0  0  0  0  0  0  0  0
   76.3195   40.4882   40.6696 C   0  0  0  0  0  0  0  0  0  0  0  0
   76.9961   39.3664   41.1284 C   0  0  0  0  0  0  0  0  0  0  0  0
   76.6746   38.0933   40.6573 C   0  0  0  0  0  0  0  0  0  0  0  0
   72.6727   41.0623   37.2501 C   0  0  1  0  0  0  0  0  0  0  0  0
   71.3629   41.2696   38.0041 C   0  0  0  0  0  0  0  0  0  0  0  0
   71.0441   40.6151   38.9861 O   0  0  0  0  0  0  0  0  0  0  0  0
   70.4975   42.1924   37.4627 N   0  0  0  0  0  0  0  0  0  0  0  0
   70.6923   43.0368   36.4010 C   0  0  0  0  0  0  0  0  0  0  0  0
   69.8717   43.8940   36.1110 O   0  0  0  0  0  0  0  0  0  0  0  0
   71.9632   42.8170   35.6198 C   0  0  0  0  0  0  0  0  0  0  0  0
   73.0886   42.3403   36.5246 C   0  0  0  0  0  0  0  0  0  0  0  0
   75.7429   35.7967   39.6830 H   0  0  0  0  0  0  0  0  0  0  0  0
   74.5556   36.5110   38.6168 H   0  0  0  0  0  0  0  0  0  0  0  0
   76.5740   41.4842   41.0190 H   0  0  0  0  0  0  0  0  0  0  0  0
   77.7928   39.4848   41.8575 H   0  0  0  0  0  0  0  0  0  0  0  0
   77.2386   37.2418   41.0243 H   0  0  0  0  0  0  0  0  0  0  0  0
   72.4632   40.2903   36.5007 H   0  0  0  0  0  0  0  0  0  0  0  0
   69.6264   42.3252   37.9556 H   0  0  0  0  0  0  0  0  0  0  0  0
   71.7609   42.0932   34.8233 H   0  0  0  0  0  0  0  0  0  0  0  0
   72.2429   43.7653   35.1566 H   0  0  0  0  0  0  0  0  0  0  0  0
   73.9936   42.1635   35.9348 H   0  0  0  0  0  0  0  0  0  0  0  0
   73.3302   43.1351   37.2355 H   0  0  0  0  0  0  0  0  0  0  0  0
  1  2  1  0  0  0  0
  1 21  1  0  0  0  0
  1 22  1  0  0  0  0
  2  3  1  0  0  0  0
  2 12  2  0  0  0  0
  3  9  2  0  0  0  0
  3  4  1  0  0  0  0
  4  5  2  0  0  0  0
  4  6  1  0  0  0  0
  6  7  1  0  0  0  0
 13  6  1  0  0  0  0
  7  8  2  0  0  0  0
  7  9  1  0  0  0  0
  9 10  1  0  0  0  0
 10 23  1  0  0  0  0
 10 11  2  0  0  0  0
 11 12  1  0  0  0  0
 11 24  1  0  0  0  0
 12 25  1  0  0  0  0
 13 26  1  0  0  0  0
 13 14  1  0  0  0  0
 13 20  1  0  0  0  0
 14 15  2  0  0  0  0
 14 16  1  0  0  0  0
 16 27  1  0  0  0  0
 16 17  1  0  0  0  0
 17 18  2  0  0  0  0
 17 19  1  0  0  0  0
 19 28  1  0  0  0  0
 19 29  1  0  0  0  0
 19 20  1  0  0  0  0
 20 30  1  0  0  0  0
 20 31  1  0  0  0  0
M  ZZC   1 n1
M  ZZC   2 c1
M  ZZC   3 c2
M  ZZC   4 c3
M  ZZC   5 o1
M  ZZC   6 n2
M  ZZC   7 c4
M  ZZC   8 o2
M  ZZC   9 c5
M  ZZC  10 c6
M  ZZC  11 c7
M  ZZC  12 c8
M  ZZC  13 c9
M  ZZC  14 c10
M  ZZC  15 o3
M  ZZC  16 n3
M  ZZC  17 c11
M  ZZC  18 o4
M  ZZC  19 c12
M  ZZC  20 c13
M  ZZC  21 h11
M  ZZC  22 h12
M  ZZC  23 h61
M  ZZC  24 h71
M  ZZC  25 h81
M  ZZC  26 h91
M  ZZC  27 h31
M  ZZC  28 h121
M  ZZC  29 h122
M  ZZC  30 h131
M  ZZC  31 h132
M  ZZM   1 40
M  ZZI   1 224
M  ZZM   2 37
M  ZZI   2 124
M  ZZM   3 37
M  ZZI   3 124
M  ZZM   4 3
M  ZZI   4 121
M  ZZM   5 7
M  ZZI   5 81
M  ZZM   6 10
M  ZZI   6 192
M  ZZM   7 3
M  ZZI   7 121
M  ZZM   8 7
M  ZZI   8 81
M  ZZM   9 37
M  ZZI   9 124
M  ZZM  10 37
M  ZZI  10 125
M  ZZM  11 37
M  ZZI  11 125
M  ZZM  12 37
M  ZZI  12 125
M  ZZM  13 1
M  ZZI  13 113
M  ZZM  14 3
M  ZZI  14 121
M  ZZM  15 7
M  ZZI  15 81
M  ZZM  16 10
M  ZZI  16 191
M  ZZM  17 3
M  ZZI  17 121
M  ZZM  18 7
M  ZZI  18 81
M  ZZM  19 1
M  ZZI  19 112
M  ZZM  20 1
M  ZZI  20 112
M  ZZM  21 28
M  ZZI  21 11
M  ZZM  22 28
M  ZZI  22 11
M  ZZM  23 5
M  ZZI  23 1
M  ZZM  24 5
M  ZZI  24 1
M  ZZM  25 5
M  ZZI  25 1
M  ZZM  26 5
M  ZZI  26 1
M  ZZM  27 28
M  ZZI  27 11
M  ZZM  28 5
M  ZZI  28 1
M  ZZM  29 5
M  ZZI  29 1
M  ZZM  30 5
M  ZZI  30 1
M  ZZM  31 5
M  ZZI  31 1
M  END
> <IX>
1

> <NAME>
Cereblon_3K6P_14.pdb

> <Score>
-20.074225

> <Natom>
31

> <Nflex>
1

> <Hbond>
-4.436024

> <Hphob>
-3.489256

> <VwInt>
-22.915634

> <Dsolv>
13.827168

> <SolEl>
7.827522

> <Eintl>
0.443015

> <RecConf>
ND

> <projPath>
Cereblon_maps/

> <NAME_>
Cereblon_3K6P_14.pdb

$$$$
