Cereblon_1HWK_10.pdb
  MOLSOFT 04032206193D

 31 33  0  0  1  0  0  0  0  0999 V2000
   75.3848   36.6211   39.2018 N   0  0  0  0  0  0  0  0  0  0  0  0
   75.6531   37.8936   39.7300 C   0  0  0  0  0  0  0  0  0  0  0  0
   75.0179   39.0353   39.2666 C   0  0  0  0  0  0  0  0  0  0  0  0
   73.9610   39.1760   38.2653 C   0  0  0  0  0  0  0  0  0  0  0  0
   73.4452   38.2359   37.6772 O   0  0  0  0  0  0  0  0  0  0  0  0
   73.6989   40.5267   38.1535 N   0  0  0  0  0  0  0  0  0  0  0  0
   74.4577   41.2409   39.0639 C   0  0  0  0  0  0  0  0  0  0  0  0
   74.4500   42.4300   39.3419 O   0  0  0  0  0  0  0  0  0  0  0  0
   75.3285   40.2765   39.7283 C   0  0  0  0  0  0  0  0  0  0  0  0
   76.3182   40.4899   40.6690 C   0  0  0  0  0  0  0  0  0  0  0  0
   76.9932   39.3680   41.1292 C   0  0  0  0  0  0  0  0  0  0  0  0
   76.6720   38.0944   40.6582 C   0  0  0  0  0  0  0  0  0  0  0  0
   72.6712   41.0647   37.2492 C   0  0  1  0  0  0  0  0  0  0  0  0
   71.3615   41.2709   38.0036 C   0  0  0  0  0  0  0  0  0  0  0  0
   71.0422   40.6179   38.9864 O   0  0  0  0  0  0  0  0  0  0  0  0
   70.4948   42.1928   37.4621 N   0  0  0  0  0  0  0  0  0  0  0  0
   70.6894   43.0374   36.4008 C   0  0  0  0  0  0  0  0  0  0  0  0
   69.8672   43.8932   36.1109 O   0  0  0  0  0  0  0  0  0  0  0  0
   71.9624   42.8230   35.6217 C   0  0  0  0  0  0  0  0  0  0  0  0
   73.0879   42.3421   36.5240 C   0  0  0  0  0  0  0  0  0  0  0  0
   75.7443   35.7984   39.6819 H   0  0  0  0  0  0  0  0  0  0  0  0
   74.5574   36.5123   38.6123 H   0  0  0  0  0  0  0  0  0  0  0  0
   76.5721   41.4854   41.0204 H   0  0  0  0  0  0  0  0  0  0  0  0
   77.7879   39.4864   41.8602 H   0  0  0  0  0  0  0  0  0  0  0  0
   77.2347   37.2427   41.0266 H   0  0  0  0  0  0  0  0  0  0  0  0
   72.4617   40.2932   36.4991 H   0  0  0  0  0  0  0  0  0  0  0  0
   69.6235   42.3238   37.9552 H   0  0  0  0  0  0  0  0  0  0  0  0
   71.7634   42.1031   34.8207 H   0  0  0  0  0  0  0  0  0  0  0  0
   72.2418   43.7741   35.1643 H   0  0  0  0  0  0  0  0  0  0  0  0
   73.9916   42.1627   35.9329 H   0  0  0  0  0  0  0  0  0  0  0  0
   73.3324   43.1369   37.2338 H   0  0  0  0  0  0  0  0  0  0  0  0
  1  2  1  0  0  0  0
  1 21  1  0  0  0  0
  1 22  1  0  0  0  0
  2  3  1  0  0  0  0
  2 12  2  0  0  0  0
  3  9  2  0  0  0  0
  3  4  1  0  0  0  0
  4  5  2  0  0  0  0
  4  6  1  0  0  0  0
  6  7  1  0  0  0  0
 13  6  1  0  0  0  0
  7  8  2  0  0  0  0
  7  9  1  0  0  0  0
  9 10  1  0  0  0  0
 10 23  1  0  0  0  0
 10 11  2  0  0  0  0
 11 12  1  0  0  0  0
 11 24  1  0  0  0  0
 12 25  1  0  0  0  0
 13 26  1  0  0  0  0
 13 14  1  0  0  0  0
 13 20  1  0  0  0  0
 14 15  2  0  0  0  0
 14 16  1  0  0  0  0
 16 27  1  0  0  0  0
 16 17  1  0  0  0  0
 17 18  2  0  0  0  0
 17 19  1  0  0  0  0
 19 28  1  0  0  0  0
 19 29  1  0  0  0  0
 19 20  1  0  0  0  0
 20 30  1  0  0  0  0
 20 31  1  0  0  0  0
M  ZZC   1 n1
M  ZZC   2 c1
M  ZZC   3 c2
M  ZZC   4 c3
M  ZZC   5 o1
M  ZZC   6 n2
M  ZZC   7 c4
M  ZZC   8 o2
M  ZZC   9 c5
M  ZZC  10 c6
M  ZZC  11 c7
M  ZZC  12 c8
M  ZZC  13 c9
M  ZZC  14 c10
M  ZZC  15 o3
M  ZZC  16 n3
M  ZZC  17 c11
M  ZZC  18 o4
M  ZZC  19 c12
M  ZZC  20 c13
M  ZZC  21 h11
M  ZZC  22 h12
M  ZZC  23 h61
M  ZZC  24 h71
M  ZZC  25 h81
M  ZZC  26 h91
M  ZZC  27 h31
M  ZZC  28 h121
M  ZZC  29 h122
M  ZZC  30 h131
M  ZZC  31 h132
M  ZZM   1 40
M  ZZI   1 224
M  ZZM   2 37
M  ZZI   2 124
M  ZZM   3 37
M  ZZI   3 124
M  ZZM   4 3
M  ZZI   4 121
M  ZZM   5 7
M  ZZI   5 81
M  ZZM   6 10
M  ZZI   6 192
M  ZZM   7 3
M  ZZI   7 121
M  ZZM   8 7
M  ZZI   8 81
M  ZZM   9 37
M  ZZI   9 124
M  ZZM  10 37
M  ZZI  10 125
M  ZZM  11 37
M  ZZI  11 125
M  ZZM  12 37
M  ZZI  12 125
M  ZZM  13 1
M  ZZI  13 113
M  ZZM  14 3
M  ZZI  14 121
M  ZZM  15 7
M  ZZI  15 81
M  ZZM  16 10
M  ZZI  16 191
M  ZZM  17 3
M  ZZI  17 121
M  ZZM  18 7
M  ZZI  18 81
M  ZZM  19 1
M  ZZI  19 112
M  ZZM  20 1
M  ZZI  20 112
M  ZZM  21 28
M  ZZI  21 11
M  ZZM  22 28
M  ZZI  22 11
M  ZZM  23 5
M  ZZI  23 1
M  ZZM  24 5
M  ZZI  24 1
M  ZZM  25 5
M  ZZI  25 1
M  ZZM  26 5
M  ZZI  26 1
M  ZZM  27 28
M  ZZI  27 11
M  ZZM  28 5
M  ZZI  28 1
M  ZZM  29 5
M  ZZI  29 1
M  ZZM  30 5
M  ZZI  30 1
M  ZZM  31 5
M  ZZI  31 1
M  END
> <IX>
1

> <NAME>
Cereblon_1HWK_10.pdb

> <Score>
-20.622371

> <Natom>
31

> <Nflex>
1

> <Hbond>
-4.551608

> <Hphob>
-3.502842

> <VwInt>
-22.820043

> <Dsolv>
13.602753

> <SolEl>
7.561147

> <Eintl>
0.446206

> <RecConf>
ND

> <projPath>
Cereblon_maps/

> <NAME_>
Cereblon_1HWK_10.pdb

$$$$
