Cereblon_6VS3_14.pdb
  MOLSOFT 04032206293D

 31 33  0  0  1  0  0  0  0  0999 V2000
   78.8192   41.6771   43.8066 N   0  0  0  0  0  0  0  0  0  0  0  0
   78.8977   42.4317   42.6264 C   0  0  0  0  0  0  0  0  0  0  0  0
   78.0950   42.1609   41.5312 C   0  0  0  0  0  0  0  0  0  0  0  0
   77.1736   41.0503   41.3261 C   0  0  0  0  0  0  0  0  0  0  0  0
   76.9935   40.1699   42.1539 O   0  0  0  0  0  0  0  0  0  0  0  0
   76.6356   41.2140   40.0650 N   0  0  0  0  0  0  0  0  0  0  0  0
   77.1596   42.3320   39.4479 C   0  0  0  0  0  0  0  0  0  0  0  0
   76.9496   42.7489   38.3163 O   0  0  0  0  0  0  0  0  0  0  0  0
   78.0916   42.9288   40.4063 C   0  0  0  0  0  0  0  0  0  0  0  0
   78.9048   44.0366   40.2828 C   0  0  0  0  0  0  0  0  0  0  0  0
   79.7253   44.3355   41.3645 C   0  0  0  0  0  0  0  0  0  0  0  0
   79.7131   43.5547   42.5219 C   0  0  0  0  0  0  0  0  0  0  0  0
   75.6173   40.3758   39.4287 C   0  0  2  0  0  0  0  0  0  0  0  0
   74.2463   40.9568   39.7293 C   0  0  0  0  0  0  0  0  0  0  0  0
   74.0772   42.1361   39.9899 O   0  0  0  0  0  0  0  0  0  0  0  0
   73.1844   40.0943   39.6062 N   0  0  0  0  0  0  0  0  0  0  0  0
   73.2087   38.7567   39.2934 C   0  0  0  0  0  0  0  0  0  0  0  0
   72.1827   38.1080   39.1726 O   0  0  0  0  0  0  0  0  0  0  0  0
   74.5724   38.1516   39.0581 C   0  0  0  0  0  0  0  0  0  0  0  0
   75.6481   38.9031   39.8225 C   0  0  0  0  0  0  0  0  0  0  0  0
   79.5388   41.7747   44.5199 H   0  0  0  0  0  0  0  0  0  0  0  0
   78.2768   40.8116   43.7931 H   0  0  0  0  0  0  0  0  0  0  0  0
   78.8981   44.6416   39.3838 H   0  0  0  0  0  0  0  0  0  0  0  0
   80.3785   45.1997   41.3164 H   0  0  0  0  0  0  0  0  0  0  0  0
   80.3510   43.8330   43.3553 H   0  0  0  0  0  0  0  0  0  0  0  0
   75.7538   40.4734   38.3504 H   0  0  0  0  0  0  0  0  0  0  0  0
   72.2687   40.4985   39.7589 H   0  0  0  0  0  0  0  0  0  0  0  0
   74.5512   37.1065   39.3831 H   0  0  0  0  0  0  0  0  0  0  0  0
   74.7682   38.1673   37.9815 H   0  0  0  0  0  0  0  0  0  0  0  0
   75.4604   38.7800   40.8931 H   0  0  0  0  0  0  0  0  0  0  0  0
   76.6335   38.4712   39.6197 H   0  0  0  0  0  0  0  0  0  0  0  0
  1  2  1  0  0  0  0
  1 21  1  0  0  0  0
  1 22  1  0  0  0  0
  2  3  1  0  0  0  0
  2 12  2  0  0  0  0
  3  9  2  0  0  0  0
  3  4  1  0  0  0  0
  4  5  2  0  0  0  0
  4  6  1  0  0  0  0
  6  7  1  0  0  0  0
 13  6  1  0  0  0  0
  7  8  2  0  0  0  0
  7  9  1  0  0  0  0
  9 10  1  0  0  0  0
 10 23  1  0  0  0  0
 10 11  2  0  0  0  0
 11 12  1  0  0  0  0
 11 24  1  0  0  0  0
 12 25  1  0  0  0  0
 13 26  1  0  0  0  0
 13 14  1  0  0  0  0
 13 20  1  0  0  0  0
 14 15  2  0  0  0  0
 14 16  1  0  0  0  0
 16 27  1  0  0  0  0
 16 17  1  0  0  0  0
 17 18  2  0  0  0  0
 17 19  1  0  0  0  0
 19 28  1  0  0  0  0
 19 29  1  0  0  0  0
 19 20  1  0  0  0  0
 20 30  1  0  0  0  0
 20 31  1  0  0  0  0
M  ZZC   1 n1
M  ZZC   2 c1
M  ZZC   3 c2
M  ZZC   4 c3
M  ZZC   5 o1
M  ZZC   6 n2
M  ZZC   7 c4
M  ZZC   8 o2
M  ZZC   9 c5
M  ZZC  10 c6
M  ZZC  11 c7
M  ZZC  12 c8
M  ZZC  13 c9
M  ZZC  14 c10
M  ZZC  15 o3
M  ZZC  16 n3
M  ZZC  17 c11
M  ZZC  18 o4
M  ZZC  19 c12
M  ZZC  20 c13
M  ZZC  21 h11
M  ZZC  22 h12
M  ZZC  23 h61
M  ZZC  24 h71
M  ZZC  25 h81
M  ZZC  26 h91
M  ZZC  27 h31
M  ZZC  28 h121
M  ZZC  29 h122
M  ZZC  30 h131
M  ZZC  31 h132
M  ZZM   1 40
M  ZZI   1 224
M  ZZM   2 37
M  ZZI   2 124
M  ZZM   3 37
M  ZZI   3 124
M  ZZM   4 3
M  ZZI   4 121
M  ZZM   5 7
M  ZZI   5 81
M  ZZM   6 10
M  ZZI   6 192
M  ZZM   7 3
M  ZZI   7 121
M  ZZM   8 7
M  ZZI   8 81
M  ZZM   9 37
M  ZZI   9 124
M  ZZM  10 37
M  ZZI  10 125
M  ZZM  11 37
M  ZZI  11 125
M  ZZM  12 37
M  ZZI  12 125
M  ZZM  13 1
M  ZZI  13 113
M  ZZM  14 3
M  ZZI  14 121
M  ZZM  15 7
M  ZZI  15 81
M  ZZM  16 10
M  ZZI  16 191
M  ZZM  17 3
M  ZZI  17 121
M  ZZM  18 7
M  ZZI  18 81
M  ZZM  19 1
M  ZZI  19 112
M  ZZM  20 1
M  ZZI  20 112
M  ZZM  21 28
M  ZZI  21 11
M  ZZM  22 28
M  ZZI  22 11
M  ZZM  23 5
M  ZZI  23 1
M  ZZM  24 5
M  ZZI  24 1
M  ZZM  25 5
M  ZZI  25 1
M  ZZM  26 5
M  ZZI  26 1
M  ZZM  27 28
M  ZZI  27 11
M  ZZM  28 5
M  ZZI  28 1
M  ZZM  29 5
M  ZZI  29 1
M  ZZM  30 5
M  ZZI  30 1
M  ZZM  31 5
M  ZZI  31 1
M  END
> <IX>
1

> <NAME>
Cereblon_6VS3_14.pdb

> <Score>
-18.662991

> <Natom>
31

> <Nflex>
1

> <Hbond>
-3.695438

> <Hphob>
-3.56331

> <VwInt>
-24.274947

> <Dsolv>
15.206887

> <SolEl>
6.524402

> <Eintl>
1.729267

> <RecConf>
ND

> <projPath>
Cereblon_maps/

> <NAME_>
Cereblon_6VS3_14.pdb

$$$$
