Cereblon_5V5Y_4.pdb
  MOLSOFT 04032206273D

 31 33  0  0  1  0  0  0  0  0999 V2000
   71.7797   40.5182   39.5570 O   0  0  0  0  0  0  0  0  0  0  0  0
   72.0402   41.0602   38.4926 C   0  0  0  0  0  0  0  0  0  0  0  0
   73.3490   40.8462   37.7417 C   0  0  2  0  0  0  0  0  0  0  0  0
   74.4066   40.4085   38.6655 N   0  0  0  0  0  0  0  0  0  0  0  0
   75.1581   41.2102   39.5036 C   0  0  0  0  0  0  0  0  0  0  0  0
   75.1003   42.4163   39.6882 O   0  0  0  0  0  0  0  0  0  0  0  0
   76.0668   40.3216   40.2365 C   0  0  0  0  0  0  0  0  0  0  0  0
   77.0669   40.6052   41.1601 C   0  0  0  0  0  0  0  0  0  0  0  0
   77.3738   41.9064   41.5870 N   0  0  0  0  0  0  0  0  0  0  0  0
   77.7000   39.5075   41.7361 C   0  0  0  0  0  0  0  0  0  0  0  0
   77.4011   38.2017   41.3527 C   0  0  0  0  0  0  0  0  0  0  0  0
   76.4314   37.9465   40.3939 C   0  0  0  0  0  0  0  0  0  0  0  0
   75.7784   39.0426   39.8633 C   0  0  0  0  0  0  0  0  0  0  0  0
   74.7117   39.0796   38.8664 C   0  0  0  0  0  0  0  0  0  0  0  0
   74.2244   38.0848   38.3492 O   0  0  0  0  0  0  0  0  0  0  0  0
   73.6975   42.0936   36.9325 C   0  0  0  0  0  0  0  0  0  0  0  0
   72.5625   42.4215   35.9765 C   0  0  0  0  0  0  0  0  0  0  0  0
   71.2677   42.6215   36.7262 C   0  0  0  0  0  0  0  0  0  0  0  0
   70.4055   43.4005   36.3471 O   0  0  0  0  0  0  0  0  0  0  0  0
   71.1145   41.8577   37.8587 N   0  0  0  0  0  0  0  0  0  0  0  0
   73.1619   40.0182   37.0481 H   0  0  0  0  0  0  0  0  0  0  0  0
   77.0051   42.7030   41.0663 H   0  0  0  0  0  0  0  0  0  0  0  0
   78.1974   42.0601   42.1646 H   0  0  0  0  0  0  0  0  0  0  0  0
   78.4512   39.6678   42.5031 H   0  0  0  0  0  0  0  0  0  0  0  0
   77.9305   37.3744   41.8154 H   0  0  0  0  0  0  0  0  0  0  0  0
   76.1892   36.9334   40.0867 H   0  0  0  0  0  0  0  0  0  0  0  0
   73.8670   42.9506   37.5896 H   0  0  0  0  0  0  0  0  0  0  0  0
   74.6238   41.9413   36.3725 H   0  0  0  0  0  0  0  0  0  0  0  0
   72.7917   43.3430   35.4340 H   0  0  0  0  0  0  0  0  0  0  0  0
   72.4197   41.6210   35.2429 H   0  0  0  0  0  0  0  0  0  0  0  0
   70.2468   41.9941   38.3554 H   0  0  0  0  0  0  0  0  0  0  0  0
  1  2  2  0  0  0  0
  3  2  1  0  0  0  0
  2 20  1  0  0  0  0
  3  4  1  0  0  0  0
  3 21  1  0  0  0  0
  3 16  1  0  0  0  0
  4  5  1  0  0  0  0
  4 14  1  0  0  0  0
  5  7  1  0  0  0  0
  5  6  2  0  0  0  0
  7  8  1  0  0  0  0
  7 13  2  0  0  0  0
  8 10  2  0  0  0  0
  8  9  1  0  0  0  0
  9 22  1  0  0  0  0
  9 23  1  0  0  0  0
 10 24  1  0  0  0  0
 10 11  1  0  0  0  0
 11 12  2  0  0  0  0
 11 25  1  0  0  0  0
 12 13  1  0  0  0  0
 12 26  1  0  0  0  0
 13 14  1  0  0  0  0
 14 15  2  0  0  0  0
 16 17  1  0  0  0  0
 16 27  1  0  0  0  0
 16 28  1  0  0  0  0
 17 18  1  0  0  0  0
 17 29  1  0  0  0  0
 17 30  1  0  0  0  0
 18 20  1  0  0  0  0
 18 19  2  0  0  0  0
 20 31  1  0  0  0  0
M  ZZC   1 o1
M  ZZC   2 c1
M  ZZC   3 c2
M  ZZC   4 n1
M  ZZC   5 c3
M  ZZC   6 o2
M  ZZC   7 c4
M  ZZC   8 c5
M  ZZC   9 n2
M  ZZC  10 c6
M  ZZC  11 c7
M  ZZC  12 c8
M  ZZC  13 c9
M  ZZC  14 c10
M  ZZC  15 o3
M  ZZC  16 c11
M  ZZC  17 c12
M  ZZC  18 c13
M  ZZC  19 o4
M  ZZC  20 n3
M  ZZC  21 h21
M  ZZC  22 h01
M  ZZC  23 h22
M  ZZC  24 h61
M  ZZC  25 h71
M  ZZC  26 h81
M  ZZC  27 h111
M  ZZC  28 h112
M  ZZC  29 h121
M  ZZC  30 h122
M  ZZC  31 h31
M  ZZM   1 7
M  ZZI   1 81
M  ZZM   2 3
M  ZZI   2 121
M  ZZM   3 1
M  ZZI   3 113
M  ZZM   4 10
M  ZZI   4 192
M  ZZM   5 3
M  ZZI   5 121
M  ZZM   6 7
M  ZZI   6 81
M  ZZM   7 37
M  ZZI   7 124
M  ZZM   8 37
M  ZZI   8 124
M  ZZM   9 40
M  ZZI   9 224
M  ZZM  10 37
M  ZZI  10 125
M  ZZM  11 37
M  ZZI  11 125
M  ZZM  12 37
M  ZZI  12 125
M  ZZM  13 37
M  ZZI  13 124
M  ZZM  14 3
M  ZZI  14 121
M  ZZM  15 7
M  ZZI  15 81
M  ZZM  16 1
M  ZZI  16 112
M  ZZM  17 1
M  ZZI  17 112
M  ZZM  18 3
M  ZZI  18 121
M  ZZM  19 7
M  ZZI  19 81
M  ZZM  20 10
M  ZZI  20 191
M  ZZM  21 5
M  ZZI  21 1
M  ZZM  22 28
M  ZZI  22 11
M  ZZM  23 28
M  ZZI  23 11
M  ZZM  24 5
M  ZZI  24 1
M  ZZM  25 5
M  ZZI  25 1
M  ZZM  26 5
M  ZZI  26 1
M  ZZM  27 5
M  ZZI  27 1
M  ZZM  28 5
M  ZZI  28 1
M  ZZM  29 5
M  ZZI  29 1
M  ZZM  30 5
M  ZZI  30 1
M  ZZM  31 28
M  ZZI  31 11
M  END
> <IX>
1

> <NAME>
Cereblon_5V5Y_4.pdb

> <Score>
-15.575639

> <Natom>
31

> <Nflex>
1

> <Hbond>
-3.482366

> <Hphob>
-3.680794

> <VwInt>
-24.117414

> <Dsolv>
16.586461

> <SolEl>
9.499985

> <Eintl>
0.847426

> <RecConf>
ND

> <projPath>
Cereblon_maps/

> <NAME_>
Cereblon_5V5Y_4.pdb

$$$$
