Cereblon_4QVX_1.pdb
  MOLSOFT 04032206243D

 31 33  0  0  1  0  0  0  0  0999 V2000
   81.6193   53.0816   19.7000 N   0  0  0  0  0  0  0  0  0  0  0  0
   81.9347   54.4459   19.7367 C   0  0  0  0  0  0  0  0  0  0  0  0
   81.2330   55.3416   20.5253 C   0  0  0  0  0  0  0  0  0  0  0  0
   80.0315   55.1277   21.3272 C   0  0  0  0  0  0  0  0  0  0  0  0
   79.4239   54.0684   21.3982 O   0  0  0  0  0  0  0  0  0  0  0  0
   79.7626   56.3285   21.9471 N   0  0  0  0  0  0  0  0  0  0  0  0
   80.6762   57.2946   21.5797 C   0  0  0  0  0  0  0  0  0  0  0  0
   80.7505   58.4705   21.9051 O   0  0  0  0  0  0  0  0  0  0  0  0
   81.6144   56.6413   20.6704 C   0  0  0  0  0  0  0  0  0  0  0  0
   82.7319   57.1544   20.0389 C   0  0  0  0  0  0  0  0  0  0  0  0
   83.4641   56.2729   19.2538 C   0  0  0  0  0  0  0  0  0  0  0  0
   83.0808   54.9370   19.1244 C   0  0  0  0  0  0  0  0  0  0  0  0
   78.6187   56.5134   22.8397 C   0  0  2  0  0  0  0  0  0  0  0  0
   77.4687   57.1894   22.1178 C   0  0  0  0  0  0  0  0  0  0  0  0
   77.3339   57.1821   20.9031 O   0  0  0  0  0  0  0  0  0  0  0  0
   76.5180   57.7382   22.9455 N   0  0  0  0  0  0  0  0  0  0  0  0
   76.4987   57.7896   24.3188 C   0  0  0  0  0  0  0  0  0  0  0  0
   75.5308   58.2094   24.9322 O   0  0  0  0  0  0  0  0  0  0  0  0
   77.7205   57.2483   25.0231 C   0  0  0  0  0  0  0  0  0  0  0  0
   78.9347   57.2872   24.1157 C   0  0  0  0  0  0  0  0  0  0  0  0
   82.0399   52.5316   18.9560 H   0  0  0  0  0  0  0  0  0  0  0  0
   80.6538   52.8451   19.9283 H   0  0  0  0  0  0  0  0  0  0  0  0
   83.0318   58.1908   20.1603 H   0  0  0  0  0  0  0  0  0  0  0  0
   84.3584   56.6234   18.7456 H   0  0  0  0  0  0  0  0  0  0  0  0
   83.6902   54.2642   18.5298 H   0  0  0  0  0  0  0  0  0  0  0  0
   78.2530   55.5163   23.1000 H   0  0  0  0  0  0  0  0  0  0  0  0
   75.7246   58.1580   22.4797 H   0  0  0  0  0  0  0  0  0  0  0  0
   77.9064   57.8466   25.9208 H   0  0  0  0  0  0  0  0  0  0  0  0
   77.5109   56.2224   25.3352 H   0  0  0  0  0  0  0  0  0  0  0  0
   79.1863   58.3297   23.8932 H   0  0  0  0  0  0  0  0  0  0  0  0
   79.7975   56.8542   24.6298 H   0  0  0  0  0  0  0  0  0  0  0  0
  1  2  1  0  0  0  0
  1 21  1  0  0  0  0
  1 22  1  0  0  0  0
  2  3  1  0  0  0  0
  2 12  2  0  0  0  0
  3  9  2  0  0  0  0
  3  4  1  0  0  0  0
  4  5  2  0  0  0  0
  4  6  1  0  0  0  0
  6  7  1  0  0  0  0
 13  6  1  0  0  0  0
  7  8  2  0  0  0  0
  7  9  1  0  0  0  0
  9 10  1  0  0  0  0
 10 23  1  0  0  0  0
 10 11  2  0  0  0  0
 11 12  1  0  0  0  0
 11 24  1  0  0  0  0
 12 25  1  0  0  0  0
 13 26  1  0  0  0  0
 13 14  1  0  0  0  0
 13 20  1  0  0  0  0
 14 15  2  0  0  0  0
 14 16  1  0  0  0  0
 16 27  1  0  0  0  0
 16 17  1  0  0  0  0
 17 18  2  0  0  0  0
 17 19  1  0  0  0  0
 19 28  1  0  0  0  0
 19 29  1  0  0  0  0
 19 20  1  0  0  0  0
 20 30  1  0  0  0  0
 20 31  1  0  0  0  0
M  ZZC   1 n1
M  ZZC   2 c1
M  ZZC   3 c2
M  ZZC   4 c3
M  ZZC   5 o1
M  ZZC   6 n2
M  ZZC   7 c4
M  ZZC   8 o2
M  ZZC   9 c5
M  ZZC  10 c6
M  ZZC  11 c7
M  ZZC  12 c8
M  ZZC  13 c9
M  ZZC  14 c10
M  ZZC  15 o3
M  ZZC  16 n3
M  ZZC  17 c11
M  ZZC  18 o4
M  ZZC  19 c12
M  ZZC  20 c13
M  ZZC  21 h11
M  ZZC  22 h12
M  ZZC  23 h61
M  ZZC  24 h71
M  ZZC  25 h81
M  ZZC  26 h91
M  ZZC  27 h31
M  ZZC  28 h121
M  ZZC  29 h122
M  ZZC  30 h131
M  ZZC  31 h132
M  ZZM   1 40
M  ZZI   1 224
M  ZZM   2 37
M  ZZI   2 124
M  ZZM   3 37
M  ZZI   3 124
M  ZZM   4 3
M  ZZI   4 121
M  ZZM   5 7
M  ZZI   5 81
M  ZZM   6 10
M  ZZI   6 192
M  ZZM   7 3
M  ZZI   7 121
M  ZZM   8 7
M  ZZI   8 81
M  ZZM   9 37
M  ZZI   9 124
M  ZZM  10 37
M  ZZI  10 125
M  ZZM  11 37
M  ZZI  11 125
M  ZZM  12 37
M  ZZI  12 125
M  ZZM  13 1
M  ZZI  13 113
M  ZZM  14 3
M  ZZI  14 121
M  ZZM  15 7
M  ZZI  15 81
M  ZZM  16 10
M  ZZI  16 191
M  ZZM  17 3
M  ZZI  17 121
M  ZZM  18 7
M  ZZI  18 81
M  ZZM  19 1
M  ZZI  19 112
M  ZZM  20 1
M  ZZI  20 112
M  ZZM  21 28
M  ZZI  21 11
M  ZZM  22 28
M  ZZI  22 11
M  ZZM  23 5
M  ZZI  23 1
M  ZZM  24 5
M  ZZI  24 1
M  ZZM  25 5
M  ZZI  25 1
M  ZZM  26 5
M  ZZI  26 1
M  ZZM  27 28
M  ZZI  27 11
M  ZZM  28 5
M  ZZI  28 1
M  ZZM  29 5
M  ZZI  29 1
M  ZZM  30 5
M  ZZI  30 1
M  ZZM  31 5
M  ZZI  31 1
M  END
> <IX>
1

> <NAME>
Cereblon_4QVX_1.pdb

> <Score>
-23.305486

> <Natom>
31

> <Nflex>
1

> <Hbond>
-4.489003

> <Hphob>
-3.33253

> <VwInt>
-24.608171

> <Dsolv>
13.969507

> <SolEl>
5.03511

> <Eintl>
0.820591

> <RecConf>
ND

> <projPath>
Cereblon_maps/

> <NAME_>
Cereblon_4QVX_1.pdb

$$$$
