Cereblon_5J8O_27.pdb
  MOLSOFT 04032206253D

 31 33  0  0  1  0  0  0  0  0999 V2000
   78.7210   41.7054   43.8939 N   0  0  0  0  0  0  0  0  0  0  0  0
   78.7953   42.4806   42.7264 C   0  0  0  0  0  0  0  0  0  0  0  0
   78.0704   42.1658   41.5892 C   0  0  0  0  0  0  0  0  0  0  0  0
   77.1607   41.0490   41.3658 C   0  0  0  0  0  0  0  0  0  0  0  0
   76.9582   40.1742   42.1952 O   0  0  0  0  0  0  0  0  0  0  0  0
   76.6532   41.2060   40.0913 N   0  0  0  0  0  0  0  0  0  0  0  0
   77.1924   42.3197   39.4801 C   0  0  0  0  0  0  0  0  0  0  0  0
   77.0029   42.7350   38.3442 O   0  0  0  0  0  0  0  0  0  0  0  0
   78.1069   42.9182   40.4544 C   0  0  0  0  0  0  0  0  0  0  0  0
   78.9270   44.0224   40.3437 C   0  0  0  0  0  0  0  0  0  0  0  0
   79.7178   44.3287   41.4474 C   0  0  0  0  0  0  0  0  0  0  0  0
   79.6512   43.5731   42.6196 C   0  0  0  0  0  0  0  0  0  0  0  0
   75.6408   40.3713   39.4413 C   0  0  2  0  0  0  0  0  0  0  0  0
   74.2698   40.9643   39.7180 C   0  0  0  0  0  0  0  0  0  0  0  0
   74.1068   42.1471   39.9707 O   0  0  0  0  0  0  0  0  0  0  0  0
   73.2024   40.1090   39.5873 N   0  0  0  0  0  0  0  0  0  0  0  0
   73.2200   38.7689   39.2834 C   0  0  0  0  0  0  0  0  0  0  0  0
   72.1904   38.1259   39.1567 O   0  0  0  0  0  0  0  0  0  0  0  0
   74.5821   38.1528   39.0649 C   0  0  0  0  0  0  0  0  0  0  0  0
   75.6561   38.8986   39.8379 C   0  0  0  0  0  0  0  0  0  0  0  0
   78.9729   42.1199   44.7902 H   0  0  0  0  0  0  0  0  0  0  0  0
   78.0782   40.9116   43.9032 H   0  0  0  0  0  0  0  0  0  0  0  0
   78.9525   44.6168   39.4380 H   0  0  0  0  0  0  0  0  0  0  0  0
   80.3885   45.1796   41.4027 H   0  0  0  0  0  0  0  0  0  0  0  0
   80.2765   43.8484   43.4634 H   0  0  0  0  0  0  0  0  0  0  0  0
   75.7961   40.4635   38.3649 H   0  0  0  0  0  0  0  0  0  0  0  0
   72.2885   40.5212   39.7282 H   0  0  0  0  0  0  0  0  0  0  0  0
   74.5499   37.1087   39.3920 H   0  0  0  0  0  0  0  0  0  0  0  0
   74.7893   38.1643   37.9903 H   0  0  0  0  0  0  0  0  0  0  0  0
   75.4578   38.7776   40.9067 H   0  0  0  0  0  0  0  0  0  0  0  0
   76.6399   38.4600   39.6423 H   0  0  0  0  0  0  0  0  0  0  0  0
  1  2  1  0  0  0  0
  1 21  1  0  0  0  0
  1 22  1  0  0  0  0
  2  3  1  0  0  0  0
  2 12  2  0  0  0  0
  3  9  2  0  0  0  0
  3  4  1  0  0  0  0
  4  5  2  0  0  0  0
  4  6  1  0  0  0  0
  6  7  1  0  0  0  0
 13  6  1  0  0  0  0
  7  8  2  0  0  0  0
  7  9  1  0  0  0  0
  9 10  1  0  0  0  0
 10 23  1  0  0  0  0
 10 11  2  0  0  0  0
 11 12  1  0  0  0  0
 11 24  1  0  0  0  0
 12 25  1  0  0  0  0
 13 26  1  0  0  0  0
 13 14  1  0  0  0  0
 13 20  1  0  0  0  0
 14 15  2  0  0  0  0
 14 16  1  0  0  0  0
 16 27  1  0  0  0  0
 16 17  1  0  0  0  0
 17 18  2  0  0  0  0
 17 19  1  0  0  0  0
 19 28  1  0  0  0  0
 19 29  1  0  0  0  0
 19 20  1  0  0  0  0
 20 30  1  0  0  0  0
 20 31  1  0  0  0  0
M  ZZC   1 n1
M  ZZC   2 c1
M  ZZC   3 c2
M  ZZC   4 c3
M  ZZC   5 o1
M  ZZC   6 n2
M  ZZC   7 c4
M  ZZC   8 o2
M  ZZC   9 c5
M  ZZC  10 c6
M  ZZC  11 c7
M  ZZC  12 c8
M  ZZC  13 c9
M  ZZC  14 c10
M  ZZC  15 o3
M  ZZC  16 n3
M  ZZC  17 c11
M  ZZC  18 o4
M  ZZC  19 c12
M  ZZC  20 c13
M  ZZC  21 h11
M  ZZC  22 h12
M  ZZC  23 h61
M  ZZC  24 h71
M  ZZC  25 h81
M  ZZC  26 h91
M  ZZC  27 h31
M  ZZC  28 h121
M  ZZC  29 h122
M  ZZC  30 h131
M  ZZC  31 h132
M  ZZM   1 40
M  ZZI   1 224
M  ZZM   2 37
M  ZZI   2 124
M  ZZM   3 37
M  ZZI   3 124
M  ZZM   4 3
M  ZZI   4 121
M  ZZM   5 7
M  ZZI   5 81
M  ZZM   6 10
M  ZZI   6 192
M  ZZM   7 3
M  ZZI   7 121
M  ZZM   8 7
M  ZZI   8 81
M  ZZM   9 37
M  ZZI   9 124
M  ZZM  10 37
M  ZZI  10 125
M  ZZM  11 37
M  ZZI  11 125
M  ZZM  12 37
M  ZZI  12 125
M  ZZM  13 1
M  ZZI  13 113
M  ZZM  14 3
M  ZZI  14 121
M  ZZM  15 7
M  ZZI  15 81
M  ZZM  16 10
M  ZZI  16 191
M  ZZM  17 3
M  ZZI  17 121
M  ZZM  18 7
M  ZZI  18 81
M  ZZM  19 1
M  ZZI  19 112
M  ZZM  20 1
M  ZZI  20 112
M  ZZM  21 28
M  ZZI  21 11
M  ZZM  22 28
M  ZZI  22 11
M  ZZM  23 5
M  ZZI  23 1
M  ZZM  24 5
M  ZZI  24 1
M  ZZM  25 5
M  ZZI  25 1
M  ZZM  26 5
M  ZZI  26 1
M  ZZM  27 28
M  ZZI  27 11
M  ZZM  28 5
M  ZZI  28 1
M  ZZM  29 5
M  ZZI  29 1
M  ZZM  30 5
M  ZZI  30 1
M  ZZM  31 5
M  ZZI  31 1
M  END
> <IX>
1

> <NAME>
Cereblon_5J8O_27.pdb

> <Score>
-21.446936

> <Natom>
31

> <Nflex>
1

> <Hbond>
-4.907213

> <Hphob>
-3.57725

> <VwInt>
-24.08417

> <Dsolv>
15.255928

> <SolEl>
6.324532

> <Eintl>
2.055174

> <RecConf>
ND

> <projPath>
Cereblon_maps/

> <NAME_>
Cereblon_5J8O_27.pdb

$$$$
