Cereblon_2EUF_2.pdb
  MOLSOFT 04032206193D

 31 33  0  0  1  0  0  0  0  0999 V2000
   78.8160   41.6823   43.8100 N   0  0  0  0  0  0  0  0  0  0  0  0
   78.8987   42.4334   42.6276 C   0  0  0  0  0  0  0  0  0  0  0  0
   78.0961   42.1624   41.5325 C   0  0  0  0  0  0  0  0  0  0  0  0
   77.1752   41.0514   41.3279 C   0  0  0  0  0  0  0  0  0  0  0  0
   76.9913   40.1720   42.1565 O   0  0  0  0  0  0  0  0  0  0  0  0
   76.6417   41.2131   40.0647 N   0  0  0  0  0  0  0  0  0  0  0  0
   77.1636   42.3320   39.4481 C   0  0  0  0  0  0  0  0  0  0  0  0
   76.9524   42.7515   38.3176 O   0  0  0  0  0  0  0  0  0  0  0  0
   78.0939   42.9294   40.4069 C   0  0  0  0  0  0  0  0  0  0  0  0
   78.9060   44.0380   40.2840 C   0  0  0  0  0  0  0  0  0  0  0  0
   79.7239   44.3391   41.3670 C   0  0  0  0  0  0  0  0  0  0  0  0
   79.7110   43.5586   42.5246 C   0  0  0  0  0  0  0  0  0  0  0  0
   75.6223   40.3751   39.4296 C   0  0  2  0  0  0  0  0  0  0  0  0
   74.2510   40.9539   39.7332 C   0  0  0  0  0  0  0  0  0  0  0  0
   74.0810   42.1337   39.9922 O   0  0  0  0  0  0  0  0  0  0  0  0
   73.1901   40.0896   39.6153 N   0  0  0  0  0  0  0  0  0  0  0  0
   73.2148   38.7521   39.3018 C   0  0  0  0  0  0  0  0  0  0  0  0
   72.1897   38.1004   39.1868 O   0  0  0  0  0  0  0  0  0  0  0  0
   74.5785   38.1508   39.0569 C   0  0  0  0  0  0  0  0  0  0  0  0
   75.6551   38.9012   39.8210 C   0  0  0  0  0  0  0  0  0  0  0  0
   79.5307   41.7867   44.5273 H   0  0  0  0  0  0  0  0  0  0  0  0
   78.2845   40.8102   43.7928 H   0  0  0  0  0  0  0  0  0  0  0  0
   78.8994   44.6435   39.3853 H   0  0  0  0  0  0  0  0  0  0  0  0
   80.3749   45.2049   41.3190 H   0  0  0  0  0  0  0  0  0  0  0  0
   80.3465   43.8392   43.3591 H   0  0  0  0  0  0  0  0  0  0  0  0
   75.7567   40.4731   38.3511 H   0  0  0  0  0  0  0  0  0  0  0  0
   72.2745   40.4920   39.7730 H   0  0  0  0  0  0  0  0  0  0  0  0
   74.5610   37.1042   39.3773 H   0  0  0  0  0  0  0  0  0  0  0  0
   74.7704   38.1719   37.9796 H   0  0  0  0  0  0  0  0  0  0  0  0
   76.6400   38.4697   39.6154 H   0  0  0  0  0  0  0  0  0  0  0  0
   75.4692   38.7753   40.8915 H   0  0  0  0  0  0  0  0  0  0  0  0
  1  2  1  0  0  0  0
  1 21  1  0  0  0  0
  1 22  1  0  0  0  0
  2  3  1  0  0  0  0
  2 12  2  0  0  0  0
  3  9  2  0  0  0  0
  3  4  1  0  0  0  0
  4  5  2  0  0  0  0
  4  6  1  0  0  0  0
  6  7  1  0  0  0  0
 13  6  1  0  0  0  0
  7  8  2  0  0  0  0
  7  9  1  0  0  0  0
  9 10  1  0  0  0  0
 10 23  1  0  0  0  0
 10 11  2  0  0  0  0
 11 12  1  0  0  0  0
 11 24  1  0  0  0  0
 12 25  1  0  0  0  0
 13 26  1  0  0  0  0
 13 14  1  0  0  0  0
 13 20  1  0  0  0  0
 14 15  2  0  0  0  0
 14 16  1  0  0  0  0
 16 27  1  0  0  0  0
 16 17  1  0  0  0  0
 17 18  2  0  0  0  0
 17 19  1  0  0  0  0
 19 28  1  0  0  0  0
 19 29  1  0  0  0  0
 19 20  1  0  0  0  0
 20 30  1  0  0  0  0
 20 31  1  0  0  0  0
M  ZZC   1 n1
M  ZZC   2 c1
M  ZZC   3 c2
M  ZZC   4 c3
M  ZZC   5 o1
M  ZZC   6 n2
M  ZZC   7 c4
M  ZZC   8 o2
M  ZZC   9 c5
M  ZZC  10 c6
M  ZZC  11 c7
M  ZZC  12 c8
M  ZZC  13 c9
M  ZZC  14 c10
M  ZZC  15 o3
M  ZZC  16 n3
M  ZZC  17 c11
M  ZZC  18 o4
M  ZZC  19 c12
M  ZZC  20 c13
M  ZZC  21 h11
M  ZZC  22 h12
M  ZZC  23 h61
M  ZZC  24 h71
M  ZZC  25 h81
M  ZZC  26 h91
M  ZZC  27 h31
M  ZZC  28 h121
M  ZZC  29 h122
M  ZZC  30 h131
M  ZZC  31 h132
M  ZZM   1 40
M  ZZI   1 224
M  ZZM   2 37
M  ZZI   2 124
M  ZZM   3 37
M  ZZI   3 124
M  ZZM   4 3
M  ZZI   4 121
M  ZZM   5 7
M  ZZI   5 81
M  ZZM   6 10
M  ZZI   6 192
M  ZZM   7 3
M  ZZI   7 121
M  ZZM   8 7
M  ZZI   8 81
M  ZZM   9 37
M  ZZI   9 124
M  ZZM  10 37
M  ZZI  10 125
M  ZZM  11 37
M  ZZI  11 125
M  ZZM  12 37
M  ZZI  12 125
M  ZZM  13 1
M  ZZI  13 113
M  ZZM  14 3
M  ZZI  14 121
M  ZZM  15 7
M  ZZI  15 81
M  ZZM  16 10
M  ZZI  16 191
M  ZZM  17 3
M  ZZI  17 121
M  ZZM  18 7
M  ZZI  18 81
M  ZZM  19 1
M  ZZI  19 112
M  ZZM  20 1
M  ZZI  20 112
M  ZZM  21 28
M  ZZI  21 11
M  ZZM  22 28
M  ZZI  22 11
M  ZZM  23 5
M  ZZI  23 1
M  ZZM  24 5
M  ZZI  24 1
M  ZZM  25 5
M  ZZI  25 1
M  ZZM  26 5
M  ZZI  26 1
M  ZZM  27 28
M  ZZI  27 11
M  ZZM  28 5
M  ZZI  28 1
M  ZZM  29 5
M  ZZI  29 1
M  ZZM  30 5
M  ZZI  30 1
M  ZZM  31 5
M  ZZI  31 1
M  END
> <IX>
1

> <NAME>
Cereblon_2EUF_2.pdb

> <Score>
-18.602414

> <Natom>
31

> <Nflex>
1

> <Hbond>
-3.678528

> <Hphob>
-3.513509

> <VwInt>
-24.245909

> <Dsolv>
15.122918

> <SolEl>
6.61042

> <Eintl>
1.665261

> <RecConf>
ND

> <projPath>
Cereblon_maps/

> <NAME_>
Cereblon_2EUF_2.pdb

$$$$
