Cereblon_2EUF_11.pdb
  MOLSOFT 04032206193D

 30 32  0  0  1  0  0  0  0  0999 V2000
   77.9188   41.4687   42.1700 C   0  0  0  0  0  0  0  0  0  0  0  0
   77.2122   41.4465   40.9753 C   0  0  0  0  0  0  0  0  0  0  0  0
   77.4504   42.3925   40.0151 C   0  0  0  0  0  0  0  0  0  0  0  0
   76.5581   42.1299   38.8794 C   0  0  0  0  0  0  0  0  0  0  0  0
   76.5501   42.7652   37.8344 O   0  0  0  0  0  0  0  0  0  0  0  0
   75.7538   41.0658   39.2435 N   0  0  0  0  0  0  0  0  0  0  0  0
   74.4731   40.7677   38.5799 C   0  0  2  0  0  0  0  0  0  0  0  0
   73.3791   41.5484   39.2823 C   0  0  0  0  0  0  0  0  0  0  0  0
   73.6200   42.4601   40.0537 O   0  0  0  0  0  0  0  0  0  0  0  0
   72.0904   41.1971   38.9665 N   0  0  0  0  0  0  0  0  0  0  0  0
   71.6681   40.1115   38.2400 C   0  0  0  0  0  0  0  0  0  0  0  0
   70.4877   39.9470   37.9666 O   0  0  0  0  0  0  0  0  0  0  0  0
   72.7596   39.1699   37.7663 C   0  0  0  0  0  0  0  0  0  0  0  0
   74.0478   39.3058   38.5743 C   0  0  0  0  0  0  0  0  0  0  0  0
   76.1454   40.5134   40.5271 C   0  0  0  0  0  0  0  0  0  0  0  0
   78.3890   43.3995   40.1665 C   0  0  0  0  0  0  0  0  0  0  0  0
   79.1094   43.4191   41.3534 C   0  0  0  0  0  0  0  0  0  0  0  0
   78.8700   42.4681   42.3444 C   0  0  0  0  0  0  0  0  0  0  0  0
   77.7372   40.7393   42.9538 H   0  0  0  0  0  0  0  0  0  0  0  0
   74.5189   41.1705   37.5618 H   0  0  0  0  0  0  0  0  0  0  0  0
   71.3692   41.8131   39.3218 H   0  0  0  0  0  0  0  0  0  0  0  0
   72.3860   38.1438   37.8402 H   0  0  0  0  0  0  0  0  0  0  0  0
   72.9475   39.3829   36.7083 H   0  0  0  0  0  0  0  0  0  0  0  0
   73.8795   38.9494   39.5974 H   0  0  0  0  0  0  0  0  0  0  0  0
   74.8277   38.6707   38.1458 H   0  0  0  0  0  0  0  0  0  0  0  0
   76.5133   39.4908   40.3908 H   0  0  0  0  0  0  0  0  0  0  0  0
   75.2960   40.5419   41.2029 H   0  0  0  0  0  0  0  0  0  0  0  0
   78.5537   44.1428   39.3935 H   0  0  0  0  0  0  0  0  0  0  0  0
   79.8551   44.1906   41.5167 H   0  0  0  0  0  0  0  0  0  0  0  0
   79.4333   42.5095   43.2717 H   0  0  0  0  0  0  0  0  0  0  0  0
  1 19  1  0  0  0  0
  1 18  2  0  0  0  0
  1  2  1  0  0  0  0
  2  3  2  0  0  0  0
  2 15  1  0  0  0  0
  3 16  1  0  0  0  0
  3  4  1  0  0  0  0
  4  6  1  0  0  0  0
  4  5  2  0  0  0  0
  6 15  1  0  0  0  0
  7  6  1  0  0  0  0
  7 20  1  0  0  0  0
  7  8  1  0  0  0  0
  7 14  1  0  0  0  0
  8  9  2  0  0  0  0
  8 10  1  0  0  0  0
 10 21  1  0  0  0  0
 10 11  1  0  0  0  0
 11 12  2  0  0  0  0
 11 13  1  0  0  0  0
 13 22  1  0  0  0  0
 13 23  1  0  0  0  0
 13 14  1  0  0  0  0
 14 24  1  0  0  0  0
 14 25  1  0  0  0  0
 15 26  1  0  0  0  0
 15 27  1  0  0  0  0
 16 17  2  0  0  0  0
 16 28  1  0  0  0  0
 17 18  1  0  0  0  0
 17 29  1  0  0  0  0
 18 30  1  0  0  0  0
M  ZZC   1 c1
M  ZZC   2 c2
M  ZZC   3 c3
M  ZZC   4 c4
M  ZZC   5 o1
M  ZZC   6 n1
M  ZZC   7 c5
M  ZZC   8 c6
M  ZZC   9 o2
M  ZZC  10 n2
M  ZZC  11 c7
M  ZZC  12 o3
M  ZZC  13 c8
M  ZZC  14 c9
M  ZZC  15 c10
M  ZZC  16 c11
M  ZZC  17 c12
M  ZZC  18 c13
M  ZZC  19 h11
M  ZZC  20 h51
M  ZZC  21 h21
M  ZZC  22 h81
M  ZZC  23 h82
M  ZZC  24 h91
M  ZZC  25 h92
M  ZZC  26 h101
M  ZZC  27 h102
M  ZZC  28 h111
M  ZZC  29 h121
M  ZZC  30 h131
M  ZZM   1 37
M  ZZI   1 125
M  ZZM   2 37
M  ZZI   2 124
M  ZZM   3 37
M  ZZI   3 124
M  ZZM   4 3
M  ZZI   4 121
M  ZZM   5 7
M  ZZI   5 81
M  ZZM   6 10
M  ZZI   6 192
M  ZZM   7 1
M  ZZI   7 113
M  ZZM   8 3
M  ZZI   8 121
M  ZZM   9 7
M  ZZI   9 81
M  ZZM  10 10
M  ZZI  10 191
M  ZZM  11 3
M  ZZI  11 121
M  ZZM  12 7
M  ZZI  12 81
M  ZZM  13 1
M  ZZI  13 112
M  ZZM  14 1
M  ZZI  14 112
M  ZZM  15 1
M  ZZI  15 112
M  ZZM  16 37
M  ZZI  16 125
M  ZZM  17 37
M  ZZI  17 125
M  ZZM  18 37
M  ZZI  18 125
M  ZZM  19 5
M  ZZI  19 1
M  ZZM  20 5
M  ZZI  20 1
M  ZZM  21 28
M  ZZI  21 11
M  ZZM  22 5
M  ZZI  22 1
M  ZZM  23 5
M  ZZI  23 1
M  ZZM  24 5
M  ZZI  24 1
M  ZZM  25 5
M  ZZI  25 1
M  ZZM  26 5
M  ZZI  26 1
M  ZZM  27 5
M  ZZI  27 1
M  ZZM  28 5
M  ZZI  28 1
M  ZZM  29 5
M  ZZI  29 1
M  ZZM  30 5
M  ZZI  30 1
M  END
> <IX>
1

> <NAME>
Cereblon_2EUF_11.pdb

> <Score>
-15.13767

> <Natom>
30

> <Nflex>
1

> <Hbond>
-4.235213

> <Hphob>
-3.738834

> <VwInt>
-19.308481

> <Dsolv>
13.764813

> <SolEl>
6.866382

> <Eintl>
3.22583

> <RecConf>
ND

> <projPath>
Cereblon_maps/

> <NAME_>
Cereblon_2EUF_11.pdb

$$$$
