Cereblon_3MXF_16.pdb
  MOLSOFT 04032206223D

 30 32  0  0  1  0  0  0  0  0999 V2000
   78.9605   42.3506   42.8091 C   0  0  0  0  0  0  0  0  0  0  0  0
   78.1549   42.0568   41.7218 C   0  0  0  0  0  0  0  0  0  0  0  0
   78.1630   42.8621   40.6136 C   0  0  0  0  0  0  0  0  0  0  0  0
   77.2331   42.3016   39.6261 C   0  0  0  0  0  0  0  0  0  0  0  0
   77.0156   42.7678   38.5151 O   0  0  0  0  0  0  0  0  0  0  0  0
   76.7076   41.1573   40.1947 N   0  0  0  0  0  0  0  0  0  0  0  0
   75.6925   40.3311   39.5360 C   0  0  2  0  0  0  0  0  0  0  0  0
   74.3100   40.9178   39.7951 C   0  0  0  0  0  0  0  0  0  0  0  0
   74.1243   42.1059   40.0015 O   0  0  0  0  0  0  0  0  0  0  0  0
   73.2537   40.0443   39.7100 N   0  0  0  0  0  0  0  0  0  0  0  0
   73.2832   38.6952   39.4577 C   0  0  0  0  0  0  0  0  0  0  0  0
   72.2624   38.0298   39.3971 O   0  0  0  0  0  0  0  0  0  0  0  0
   74.6456   38.0972   39.2077 C   0  0  0  0  0  0  0  0  0  0  0  0
   75.7288   38.8637   39.9455 C   0  0  0  0  0  0  0  0  0  0  0  0
   77.2300   40.9118   41.5291 C   0  0  0  0  0  0  0  0  0  0  0  0
   78.9687   43.9787   40.5054 C   0  0  0  0  0  0  0  0  0  0  0  0
   79.7894   44.2706   41.5859 C   0  0  0  0  0  0  0  0  0  0  0  0
   79.7843   43.4669   42.7241 C   0  0  0  0  0  0  0  0  0  0  0  0
   78.9598   41.7250   43.6972 H   0  0  0  0  0  0  0  0  0  0  0  0
   75.8574   40.4205   38.4599 H   0  0  0  0  0  0  0  0  0  0  0  0
   72.3370   40.4491   39.8536 H   0  0  0  0  0  0  0  0  0  0  0  0
   74.6375   37.0556   39.5442 H   0  0  0  0  0  0  0  0  0  0  0  0
   74.8228   38.1038   38.1276 H   0  0  0  0  0  0  0  0  0  0  0  0
   75.5725   38.7594   41.0239 H   0  0  0  0  0  0  0  0  0  0  0  0
   76.7100   38.4308   39.7247 H   0  0  0  0  0  0  0  0  0  0  0  0
   77.7714   39.9599   41.5428 H   0  0  0  0  0  0  0  0  0  0  0  0
   76.4203   40.9133   42.2618 H   0  0  0  0  0  0  0  0  0  0  0  0
   78.9575   44.5967   39.6151 H   0  0  0  0  0  0  0  0  0  0  0  0
   80.4370   45.1390   41.5469 H   0  0  0  0  0  0  0  0  0  0  0  0
   80.4340   43.7161   43.5578 H   0  0  0  0  0  0  0  0  0  0  0  0
  1 19  1  0  0  0  0
  1 18  2  0  0  0  0
  1  2  1  0  0  0  0
  2  3  2  0  0  0  0
  2 15  1  0  0  0  0
  3 16  1  0  0  0  0
  3  4  1  0  0  0  0
  4  6  1  0  0  0  0
  4  5  2  0  0  0  0
  6 15  1  0  0  0  0
  7  6  1  0  0  0  0
  7 20  1  0  0  0  0
  7  8  1  0  0  0  0
  7 14  1  0  0  0  0
  8  9  2  0  0  0  0
  8 10  1  0  0  0  0
 10 21  1  0  0  0  0
 10 11  1  0  0  0  0
 11 12  2  0  0  0  0
 11 13  1  0  0  0  0
 13 22  1  0  0  0  0
 13 23  1  0  0  0  0
 13 14  1  0  0  0  0
 14 24  1  0  0  0  0
 14 25  1  0  0  0  0
 15 26  1  0  0  0  0
 15 27  1  0  0  0  0
 16 17  2  0  0  0  0
 16 28  1  0  0  0  0
 17 18  1  0  0  0  0
 17 29  1  0  0  0  0
 18 30  1  0  0  0  0
M  ZZC   1 c1
M  ZZC   2 c2
M  ZZC   3 c3
M  ZZC   4 c4
M  ZZC   5 o1
M  ZZC   6 n1
M  ZZC   7 c5
M  ZZC   8 c6
M  ZZC   9 o2
M  ZZC  10 n2
M  ZZC  11 c7
M  ZZC  12 o3
M  ZZC  13 c8
M  ZZC  14 c9
M  ZZC  15 c10
M  ZZC  16 c11
M  ZZC  17 c12
M  ZZC  18 c13
M  ZZC  19 h11
M  ZZC  20 h51
M  ZZC  21 h21
M  ZZC  22 h81
M  ZZC  23 h82
M  ZZC  24 h91
M  ZZC  25 h92
M  ZZC  26 h101
M  ZZC  27 h102
M  ZZC  28 h111
M  ZZC  29 h121
M  ZZC  30 h131
M  ZZM   1 37
M  ZZI   1 125
M  ZZM   2 37
M  ZZI   2 124
M  ZZM   3 37
M  ZZI   3 124
M  ZZM   4 3
M  ZZI   4 121
M  ZZM   5 7
M  ZZI   5 81
M  ZZM   6 10
M  ZZI   6 192
M  ZZM   7 1
M  ZZI   7 113
M  ZZM   8 3
M  ZZI   8 121
M  ZZM   9 7
M  ZZI   9 81
M  ZZM  10 10
M  ZZI  10 191
M  ZZM  11 3
M  ZZI  11 121
M  ZZM  12 7
M  ZZI  12 81
M  ZZM  13 1
M  ZZI  13 112
M  ZZM  14 1
M  ZZI  14 112
M  ZZM  15 1
M  ZZI  15 112
M  ZZM  16 37
M  ZZI  16 125
M  ZZM  17 37
M  ZZI  17 125
M  ZZM  18 37
M  ZZI  18 125
M  ZZM  19 5
M  ZZI  19 1
M  ZZM  20 5
M  ZZI  20 1
M  ZZM  21 28
M  ZZI  21 11
M  ZZM  22 5
M  ZZI  22 1
M  ZZM  23 5
M  ZZI  23 1
M  ZZM  24 5
M  ZZI  24 1
M  ZZM  25 5
M  ZZI  25 1
M  ZZM  26 5
M  ZZI  26 1
M  ZZM  27 5
M  ZZI  27 1
M  ZZM  28 5
M  ZZI  28 1
M  ZZM  29 5
M  ZZI  29 1
M  ZZM  30 5
M  ZZI  30 1
M  END
> <IX>
1

> <NAME>
Cereblon_3MXF_16.pdb

> <Score>
-18.564065

> <Natom>
30

> <Nflex>
1

> <Hbond>
-3.225698

> <Hphob>
-3.926288

> <VwInt>
-21.102375

> <Dsolv>
10.90519

> <SolEl>
5.943542

> <Eintl>
1.047183

> <RecConf>
ND

> <projPath>
Cereblon_maps/

> <NAME_>
Cereblon_3MXF_16.pdb

$$$$
