Cereblon_5E80_1.pdb
  MOLSOFT 04032206243D

 31 33  0  0  1  0  0  0  0  0999 V2000
   78.8108   41.6625   43.8026 N   0  0  0  0  0  0  0  0  0  0  0  0
   78.8891   42.4220   42.6253 C   0  0  0  0  0  0  0  0  0  0  0  0
   78.0874   42.1545   41.5288 C   0  0  0  0  0  0  0  0  0  0  0  0
   77.1627   41.0468   41.3217 C   0  0  0  0  0  0  0  0  0  0  0  0
   76.9836   40.1628   42.1469 O   0  0  0  0  0  0  0  0  0  0  0  0
   76.6236   41.2177   40.0625 N   0  0  0  0  0  0  0  0  0  0  0  0
   77.1518   42.3334   39.4469 C   0  0  0  0  0  0  0  0  0  0  0  0
   76.9476   42.7522   38.3149 O   0  0  0  0  0  0  0  0  0  0  0  0
   78.0863   42.9254   40.4057 C   0  0  0  0  0  0  0  0  0  0  0  0
   78.9029   44.0309   40.2847 C   0  0  0  0  0  0  0  0  0  0  0  0
   79.7231   44.3268   41.3678 C   0  0  0  0  0  0  0  0  0  0  0  0
   79.7079   43.5429   42.5235 C   0  0  0  0  0  0  0  0  0  0  0  0
   75.6083   40.3782   39.4229 C   0  0  2  0  0  0  0  0  0  0  0  0
   74.2365   40.9587   39.7190 C   0  0  0  0  0  0  0  0  0  0  0  0
   74.0666   42.1376   39.9847 O   0  0  0  0  0  0  0  0  0  0  0  0
   73.1748   40.0977   39.5863 N   0  0  0  0  0  0  0  0  0  0  0  0
   73.1992   38.7611   39.2695 C   0  0  0  0  0  0  0  0  0  0  0  0
   72.1730   38.1136   39.1379 O   0  0  0  0  0  0  0  0  0  0  0  0
   74.5637   38.1532   39.0442 C   0  0  0  0  0  0  0  0  0  0  0  0
   75.6366   38.9034   39.8142 C   0  0  0  0  0  0  0  0  0  0  0  0
   79.5454   41.7369   44.5031 H   0  0  0  0  0  0  0  0  0  0  0  0
   78.2481   40.8099   43.7920 H   0  0  0  0  0  0  0  0  0  0  0  0
   78.8971   44.6386   39.3875 H   0  0  0  0  0  0  0  0  0  0  0  0
   80.3797   45.1884   41.3209 H   0  0  0  0  0  0  0  0  0  0  0  0
   80.3487   43.8162   43.3563 H   0  0  0  0  0  0  0  0  0  0  0  0
   75.7476   40.4740   38.3448 H   0  0  0  0  0  0  0  0  0  0  0  0
   72.2585   40.5018   39.7357 H   0  0  0  0  0  0  0  0  0  0  0  0
   74.5383   37.1084   39.3697 H   0  0  0  0  0  0  0  0  0  0  0  0
   74.7665   38.1675   37.9689 H   0  0  0  0  0  0  0  0  0  0  0  0
   75.4452   38.7770   40.8836 H   0  0  0  0  0  0  0  0  0  0  0  0
   76.6227   38.4726   39.6124 H   0  0  0  0  0  0  0  0  0  0  0  0
  1  2  1  0  0  0  0
  1 21  1  0  0  0  0
  1 22  1  0  0  0  0
  2  3  1  0  0  0  0
  2 12  2  0  0  0  0
  3  9  2  0  0  0  0
  3  4  1  0  0  0  0
  4  5  2  0  0  0  0
  4  6  1  0  0  0  0
  6  7  1  0  0  0  0
 13  6  1  0  0  0  0
  7  8  2  0  0  0  0
  7  9  1  0  0  0  0
  9 10  1  0  0  0  0
 10 23  1  0  0  0  0
 10 11  2  0  0  0  0
 11 12  1  0  0  0  0
 11 24  1  0  0  0  0
 12 25  1  0  0  0  0
 13 26  1  0  0  0  0
 13 14  1  0  0  0  0
 13 20  1  0  0  0  0
 14 15  2  0  0  0  0
 14 16  1  0  0  0  0
 16 27  1  0  0  0  0
 16 17  1  0  0  0  0
 17 18  2  0  0  0  0
 17 19  1  0  0  0  0
 19 28  1  0  0  0  0
 19 29  1  0  0  0  0
 19 20  1  0  0  0  0
 20 30  1  0  0  0  0
 20 31  1  0  0  0  0
M  ZZC   1 n1
M  ZZC   2 c1
M  ZZC   3 c2
M  ZZC   4 c3
M  ZZC   5 o1
M  ZZC   6 n2
M  ZZC   7 c4
M  ZZC   8 o2
M  ZZC   9 c5
M  ZZC  10 c6
M  ZZC  11 c7
M  ZZC  12 c8
M  ZZC  13 c9
M  ZZC  14 c10
M  ZZC  15 o3
M  ZZC  16 n3
M  ZZC  17 c11
M  ZZC  18 o4
M  ZZC  19 c12
M  ZZC  20 c13
M  ZZC  21 h11
M  ZZC  22 h12
M  ZZC  23 h61
M  ZZC  24 h71
M  ZZC  25 h81
M  ZZC  26 h91
M  ZZC  27 h31
M  ZZC  28 h121
M  ZZC  29 h122
M  ZZC  30 h131
M  ZZC  31 h132
M  ZZM   1 40
M  ZZI   1 224
M  ZZM   2 37
M  ZZI   2 124
M  ZZM   3 37
M  ZZI   3 124
M  ZZM   4 3
M  ZZI   4 121
M  ZZM   5 7
M  ZZI   5 81
M  ZZM   6 10
M  ZZI   6 192
M  ZZM   7 3
M  ZZI   7 121
M  ZZM   8 7
M  ZZI   8 81
M  ZZM   9 37
M  ZZI   9 124
M  ZZM  10 37
M  ZZI  10 125
M  ZZM  11 37
M  ZZI  11 125
M  ZZM  12 37
M  ZZI  12 125
M  ZZM  13 1
M  ZZI  13 113
M  ZZM  14 3
M  ZZI  14 121
M  ZZM  15 7
M  ZZI  15 81
M  ZZM  16 10
M  ZZI  16 191
M  ZZM  17 3
M  ZZI  17 121
M  ZZM  18 7
M  ZZI  18 81
M  ZZM  19 1
M  ZZI  19 112
M  ZZM  20 1
M  ZZI  20 112
M  ZZM  21 28
M  ZZI  21 11
M  ZZM  22 28
M  ZZI  22 11
M  ZZM  23 5
M  ZZI  23 1
M  ZZM  24 5
M  ZZI  24 1
M  ZZM  25 5
M  ZZI  25 1
M  ZZM  26 5
M  ZZI  26 1
M  ZZM  27 28
M  ZZI  27 11
M  ZZM  28 5
M  ZZI  28 1
M  ZZM  29 5
M  ZZI  29 1
M  ZZM  30 5
M  ZZI  30 1
M  ZZM  31 5
M  ZZI  31 1
M  END
> <IX>
1

> <NAME>
Cereblon_5E80_1.pdb

> <Score>
-18.640086

> <Natom>
31

> <Nflex>
1

> <Hbond>
-3.701917

> <Hphob>
-3.567587

> <VwInt>
-24.270355

> <Dsolv>
15.25077

> <SolEl>
6.497784

> <Eintl>
1.766311

> <RecConf>
ND

> <projPath>
Cereblon_maps/

> <NAME_>
Cereblon_5E80_1.pdb

$$$$
