Cereblon_5TOB_14.pdb
  MOLSOFT 04032206263D

 31 33  0  0  1  0  0  0  0  0999 V2000
   78.7100   41.7090   43.8979 N   0  0  0  0  0  0  0  0  0  0  0  0
   78.7878   42.4830   42.7300 C   0  0  0  0  0  0  0  0  0  0  0  0
   78.0655   42.1664   41.5911 C   0  0  0  0  0  0  0  0  0  0  0  0
   77.1521   41.0522   41.3672 C   0  0  0  0  0  0  0  0  0  0  0  0
   76.9415   40.1828   42.2007 O   0  0  0  0  0  0  0  0  0  0  0  0
   76.6503   41.2064   40.0905 N   0  0  0  0  0  0  0  0  0  0  0  0
   77.1932   42.3187   39.4785 C   0  0  0  0  0  0  0  0  0  0  0  0
   77.0037   42.7347   38.3427 O   0  0  0  0  0  0  0  0  0  0  0  0
   78.1093   42.9145   40.4530 C   0  0  0  0  0  0  0  0  0  0  0  0
   78.9327   44.0168   40.3404 C   0  0  0  0  0  0  0  0  0  0  0  0
   79.7189   44.3229   41.4452 C   0  0  0  0  0  0  0  0  0  0  0  0
   79.6489   43.5711   42.6198 C   0  0  0  0  0  0  0  0  0  0  0  0
   75.6400   40.3694   39.4401 C   0  0  2  0  0  0  0  0  0  0  0  0
   74.2678   40.9584   39.7153 C   0  0  0  0  0  0  0  0  0  0  0  0
   74.1005   42.1402   39.9711 O   0  0  0  0  0  0  0  0  0  0  0  0
   73.2028   40.1007   39.5799 N   0  0  0  0  0  0  0  0  0  0  0  0
   73.2242   38.7612   39.2709 C   0  0  0  0  0  0  0  0  0  0  0  0
   72.1970   38.1149   39.1395 O   0  0  0  0  0  0  0  0  0  0  0  0
   74.5888   38.1489   39.0519 C   0  0  0  0  0  0  0  0  0  0  0  0
   75.6586   38.8950   39.8336 C   0  0  0  0  0  0  0  0  0  0  0  0
   78.9601   42.1258   44.7935 H   0  0  0  0  0  0  0  0  0  0  0  0
   78.0660   40.9163   43.9085 H   0  0  0  0  0  0  0  0  0  0  0  0
   78.9635   44.6072   39.4322 H   0  0  0  0  0  0  0  0  0  0  0  0
   80.3937   45.1705   41.3985 H   0  0  0  0  0  0  0  0  0  0  0  0
   80.2768   43.8455   43.4618 H   0  0  0  0  0  0  0  0  0  0  0  0
   75.7949   40.4606   38.3635 H   0  0  0  0  0  0  0  0  0  0  0  0
   72.2875   40.5096   39.7210 H   0  0  0  0  0  0  0  0  0  0  0  0
   74.5576   37.1029   39.3731 H   0  0  0  0  0  0  0  0  0  0  0  0
   74.7968   38.1665   37.9777 H   0  0  0  0  0  0  0  0  0  0  0  0
   75.4574   38.7680   40.9014 H   0  0  0  0  0  0  0  0  0  0  0  0
   76.6449   38.4608   39.6408 H   0  0  0  0  0  0  0  0  0  0  0  0
  1  2  1  0  0  0  0
  1 21  1  0  0  0  0
  1 22  1  0  0  0  0
  2  3  1  0  0  0  0
  2 12  2  0  0  0  0
  3  9  2  0  0  0  0
  3  4  1  0  0  0  0
  4  5  2  0  0  0  0
  4  6  1  0  0  0  0
  6  7  1  0  0  0  0
 13  6  1  0  0  0  0
  7  8  2  0  0  0  0
  7  9  1  0  0  0  0
  9 10  1  0  0  0  0
 10 23  1  0  0  0  0
 10 11  2  0  0  0  0
 11 12  1  0  0  0  0
 11 24  1  0  0  0  0
 12 25  1  0  0  0  0
 13 26  1  0  0  0  0
 13 14  1  0  0  0  0
 13 20  1  0  0  0  0
 14 15  2  0  0  0  0
 14 16  1  0  0  0  0
 16 27  1  0  0  0  0
 16 17  1  0  0  0  0
 17 18  2  0  0  0  0
 17 19  1  0  0  0  0
 19 28  1  0  0  0  0
 19 29  1  0  0  0  0
 19 20  1  0  0  0  0
 20 30  1  0  0  0  0
 20 31  1  0  0  0  0
M  ZZC   1 n1
M  ZZC   2 c1
M  ZZC   3 c2
M  ZZC   4 c3
M  ZZC   5 o1
M  ZZC   6 n2
M  ZZC   7 c4
M  ZZC   8 o2
M  ZZC   9 c5
M  ZZC  10 c6
M  ZZC  11 c7
M  ZZC  12 c8
M  ZZC  13 c9
M  ZZC  14 c10
M  ZZC  15 o3
M  ZZC  16 n3
M  ZZC  17 c11
M  ZZC  18 o4
M  ZZC  19 c12
M  ZZC  20 c13
M  ZZC  21 h11
M  ZZC  22 h12
M  ZZC  23 h61
M  ZZC  24 h71
M  ZZC  25 h81
M  ZZC  26 h91
M  ZZC  27 h31
M  ZZC  28 h121
M  ZZC  29 h122
M  ZZC  30 h131
M  ZZC  31 h132
M  ZZM   1 40
M  ZZI   1 224
M  ZZM   2 37
M  ZZI   2 124
M  ZZM   3 37
M  ZZI   3 124
M  ZZM   4 3
M  ZZI   4 121
M  ZZM   5 7
M  ZZI   5 81
M  ZZM   6 10
M  ZZI   6 192
M  ZZM   7 3
M  ZZI   7 121
M  ZZM   8 7
M  ZZI   8 81
M  ZZM   9 37
M  ZZI   9 124
M  ZZM  10 37
M  ZZI  10 125
M  ZZM  11 37
M  ZZI  11 125
M  ZZM  12 37
M  ZZI  12 125
M  ZZM  13 1
M  ZZI  13 113
M  ZZM  14 3
M  ZZI  14 121
M  ZZM  15 7
M  ZZI  15 81
M  ZZM  16 10
M  ZZI  16 191
M  ZZM  17 3
M  ZZI  17 121
M  ZZM  18 7
M  ZZI  18 81
M  ZZM  19 1
M  ZZI  19 112
M  ZZM  20 1
M  ZZI  20 112
M  ZZM  21 28
M  ZZI  21 11
M  ZZM  22 28
M  ZZI  22 11
M  ZZM  23 5
M  ZZI  23 1
M  ZZM  24 5
M  ZZI  24 1
M  ZZM  25 5
M  ZZI  25 1
M  ZZM  26 5
M  ZZI  26 1
M  ZZM  27 28
M  ZZI  27 11
M  ZZM  28 5
M  ZZI  28 1
M  ZZM  29 5
M  ZZI  29 1
M  ZZM  30 5
M  ZZI  30 1
M  ZZM  31 5
M  ZZI  31 1
M  END
> <IX>
1

> <NAME>
Cereblon_5TOB_14.pdb

> <Score>
-21.569107

> <Natom>
31

> <Nflex>
1

> <Hbond>
-4.889123

> <Hphob>
-3.521882

> <VwInt>
-24.09924

> <Dsolv>
15.187394

> <SolEl>
6.189301

> <Eintl>
1.972984

> <RecConf>
ND

> <projPath>
Cereblon_maps/

> <NAME_>
Cereblon_5TOB_14.pdb

$$$$
