Cereblon_1ERR_2.pdb
  MOLSOFT 04032206183D

 30 32  0  0  1  0  0  0  0  0999 V2000
   77.9464   41.4885   42.1685 C   0  0  0  0  0  0  0  0  0  0  0  0
   77.2308   41.4643   40.9788 C   0  0  0  0  0  0  0  0  0  0  0  0
   77.4660   42.4078   40.0148 C   0  0  0  0  0  0  0  0  0  0  0  0
   76.5608   42.1498   38.8892 C   0  0  0  0  0  0  0  0  0  0  0  0
   76.5524   42.7791   37.8404 O   0  0  0  0  0  0  0  0  0  0  0  0
   75.7524   41.0932   39.2627 N   0  0  0  0  0  0  0  0  0  0  0  0
   74.4778   40.7814   38.5933 C   0  0  2  0  0  0  0  0  0  0  0  0
   73.3754   41.5568   39.2888 C   0  0  0  0  0  0  0  0  0  0  0  0
   73.6073   42.4688   40.0626 O   0  0  0  0  0  0  0  0  0  0  0  0
   72.0901   41.1921   38.9736 N   0  0  0  0  0  0  0  0  0  0  0  0
   71.6786   40.1034   38.2445 C   0  0  0  0  0  0  0  0  0  0  0  0
   70.5009   39.9297   37.9657 O   0  0  0  0  0  0  0  0  0  0  0  0
   72.7810   39.1766   37.7675 C   0  0  0  0  0  0  0  0  0  0  0  0
   74.0603   39.3185   38.5893 C   0  0  0  0  0  0  0  0  0  0  0  0
   76.1577   40.5335   40.5386 C   0  0  0  0  0  0  0  0  0  0  0  0
   78.4057   43.4142   40.1583 C   0  0  0  0  0  0  0  0  0  0  0  0
   79.1319   43.4382   41.3409 C   0  0  0  0  0  0  0  0  0  0  0  0
   78.8995   42.4887   42.3352 C   0  0  0  0  0  0  0  0  0  0  0  0
   77.7719   40.7624   42.9570 H   0  0  0  0  0  0  0  0  0  0  0  0
   74.5254   41.1807   37.5745 H   0  0  0  0  0  0  0  0  0  0  0  0
   71.3635   41.8028   39.3271 H   0  0  0  0  0  0  0  0  0  0  0  0
   72.4167   38.1464   37.8318 H   0  0  0  0  0  0  0  0  0  0  0  0
   72.9747   39.3994   36.7125 H   0  0  0  0  0  0  0  0  0  0  0  0
   73.8837   38.9656   39.6123 H   0  0  0  0  0  0  0  0  0  0  0  0
   74.8475   38.6851   38.1719 H   0  0  0  0  0  0  0  0  0  0  0  0
   76.5236   39.5114   40.3929 H   0  0  0  0  0  0  0  0  0  0  0  0
   75.3159   40.5606   41.2232 H   0  0  0  0  0  0  0  0  0  0  0  0
   78.5648   44.1572   39.3840 H   0  0  0  0  0  0  0  0  0  0  0  0
   79.8772   44.2112   41.4981 H   0  0  0  0  0  0  0  0  0  0  0  0
   79.4685   42.5333   43.2589 H   0  0  0  0  0  0  0  0  0  0  0  0
  1 19  1  0  0  0  0
  1 18  2  0  0  0  0
  1  2  1  0  0  0  0
  2  3  2  0  0  0  0
  2 15  1  0  0  0  0
  3 16  1  0  0  0  0
  3  4  1  0  0  0  0
  4  6  1  0  0  0  0
  4  5  2  0  0  0  0
  6 15  1  0  0  0  0
  7  6  1  0  0  0  0
  7 20  1  0  0  0  0
  7  8  1  0  0  0  0
  7 14  1  0  0  0  0
  8  9  2  0  0  0  0
  8 10  1  0  0  0  0
 10 21  1  0  0  0  0
 10 11  1  0  0  0  0
 11 12  2  0  0  0  0
 11 13  1  0  0  0  0
 13 22  1  0  0  0  0
 13 23  1  0  0  0  0
 13 14  1  0  0  0  0
 14 24  1  0  0  0  0
 14 25  1  0  0  0  0
 15 26  1  0  0  0  0
 15 27  1  0  0  0  0
 16 17  2  0  0  0  0
 16 28  1  0  0  0  0
 17 18  1  0  0  0  0
 17 29  1  0  0  0  0
 18 30  1  0  0  0  0
M  ZZC   1 c1
M  ZZC   2 c2
M  ZZC   3 c3
M  ZZC   4 c4
M  ZZC   5 o1
M  ZZC   6 n1
M  ZZC   7 c5
M  ZZC   8 c6
M  ZZC   9 o2
M  ZZC  10 n2
M  ZZC  11 c7
M  ZZC  12 o3
M  ZZC  13 c8
M  ZZC  14 c9
M  ZZC  15 c10
M  ZZC  16 c11
M  ZZC  17 c12
M  ZZC  18 c13
M  ZZC  19 h11
M  ZZC  20 h51
M  ZZC  21 h21
M  ZZC  22 h81
M  ZZC  23 h82
M  ZZC  24 h91
M  ZZC  25 h92
M  ZZC  26 h101
M  ZZC  27 h102
M  ZZC  28 h111
M  ZZC  29 h121
M  ZZC  30 h131
M  ZZM   1 37
M  ZZI   1 125
M  ZZM   2 37
M  ZZI   2 124
M  ZZM   3 37
M  ZZI   3 124
M  ZZM   4 3
M  ZZI   4 121
M  ZZM   5 7
M  ZZI   5 81
M  ZZM   6 10
M  ZZI   6 192
M  ZZM   7 1
M  ZZI   7 113
M  ZZM   8 3
M  ZZI   8 121
M  ZZM   9 7
M  ZZI   9 81
M  ZZM  10 10
M  ZZI  10 191
M  ZZM  11 3
M  ZZI  11 121
M  ZZM  12 7
M  ZZI  12 81
M  ZZM  13 1
M  ZZI  13 112
M  ZZM  14 1
M  ZZI  14 112
M  ZZM  15 1
M  ZZI  15 112
M  ZZM  16 37
M  ZZI  16 125
M  ZZM  17 37
M  ZZI  17 125
M  ZZM  18 37
M  ZZI  18 125
M  ZZM  19 5
M  ZZI  19 1
M  ZZM  20 5
M  ZZI  20 1
M  ZZM  21 28
M  ZZI  21 11
M  ZZM  22 5
M  ZZI  22 1
M  ZZM  23 5
M  ZZI  23 1
M  ZZM  24 5
M  ZZI  24 1
M  ZZM  25 5
M  ZZI  25 1
M  ZZM  26 5
M  ZZI  26 1
M  ZZM  27 5
M  ZZI  27 1
M  ZZM  28 5
M  ZZI  28 1
M  ZZM  29 5
M  ZZI  29 1
M  ZZM  30 5
M  ZZI  30 1
M  END
> <IX>
1

> <NAME>
Cereblon_1ERR_2.pdb

> <Score>
-15.025367

> <Natom>
30

> <Nflex>
1

> <Hbond>
-4.204043

> <Hphob>
-3.686652

> <VwInt>
-19.311995

> <Dsolv>
13.70068

> <SolEl>
7.014689

> <Eintl>
3.146181

> <RecConf>
ND

> <projPath>
Cereblon_maps/

> <NAME_>
Cereblon_1ERR_2.pdb

$$$$
