Cereblon_6VS3_23.pdb
  MOLSOFT 04032206293D

 31 33  0  0  1  0  0  0  0  0999 V2000
   78.7219   41.7136   43.8948 N   0  0  0  0  0  0  0  0  0  0  0  0
   78.7921   42.4908   42.7278 C   0  0  0  0  0  0  0  0  0  0  0  0
   78.0711   42.1719   41.5893 C   0  0  0  0  0  0  0  0  0  0  0  0
   77.1601   41.0570   41.3674 C   0  0  0  0  0  0  0  0  0  0  0  0
   76.9480   40.1907   42.2024 O   0  0  0  0  0  0  0  0  0  0  0  0
   76.6613   41.2054   40.0887 N   0  0  0  0  0  0  0  0  0  0  0  0
   77.1979   42.3198   39.4770 C   0  0  0  0  0  0  0  0  0  0  0  0
   77.0002   42.7388   38.3439 O   0  0  0  0  0  0  0  0  0  0  0  0
   78.1109   42.9201   40.4518 C   0  0  0  0  0  0  0  0  0  0  0  0
   78.9329   44.0225   40.3391 C   0  0  0  0  0  0  0  0  0  0  0  0
   79.7220   44.3304   41.4416 C   0  0  0  0  0  0  0  0  0  0  0  0
   79.6546   43.5775   42.6159 C   0  0  0  0  0  0  0  0  0  0  0  0
   75.6470   40.3706   39.4415 C   0  0  2  0  0  0  0  0  0  0  0  0
   74.2752   40.9579   39.7294 C   0  0  0  0  0  0  0  0  0  0  0  0
   74.1091   42.1399   39.9806 O   0  0  0  0  0  0  0  0  0  0  0  0
   73.2108   40.0983   39.6092 N   0  0  0  0  0  0  0  0  0  0  0  0
   73.2309   38.7588   39.3053 C   0  0  0  0  0  0  0  0  0  0  0  0
   72.2033   38.1107   39.1921 O   0  0  0  0  0  0  0  0  0  0  0  0
   74.5925   38.1507   39.0677 C   0  0  0  0  0  0  0  0  0  0  0  0
   75.6695   38.8971   39.8352 C   0  0  0  0  0  0  0  0  0  0  0  0
   78.9827   42.1282   44.7885 H   0  0  0  0  0  0  0  0  0  0  0  0
   78.0612   40.9348   43.9126 H   0  0  0  0  0  0  0  0  0  0  0  0
   78.9623   44.6123   39.4306 H   0  0  0  0  0  0  0  0  0  0  0  0
   80.3959   45.1786   41.3940 H   0  0  0  0  0  0  0  0  0  0  0  0
   80.2839   43.8508   43.4574 H   0  0  0  0  0  0  0  0  0  0  0  0
   75.7949   40.4666   38.3645 H   0  0  0  0  0  0  0  0  0  0  0  0
   72.2963   40.5063   39.7592 H   0  0  0  0  0  0  0  0  0  0  0  0
   74.5685   37.1048   39.3899 H   0  0  0  0  0  0  0  0  0  0  0  0
   74.7878   38.1689   37.9911 H   0  0  0  0  0  0  0  0  0  0  0  0
   76.6533   38.4607   39.6345 H   0  0  0  0  0  0  0  0  0  0  0  0
   75.4785   38.7731   40.9049 H   0  0  0  0  0  0  0  0  0  0  0  0
  1  2  1  0  0  0  0
  1 21  1  0  0  0  0
  1 22  1  0  0  0  0
  2  3  1  0  0  0  0
  2 12  2  0  0  0  0
  3  9  2  0  0  0  0
  3  4  1  0  0  0  0
  4  5  2  0  0  0  0
  4  6  1  0  0  0  0
  6  7  1  0  0  0  0
 13  6  1  0  0  0  0
  7  8  2  0  0  0  0
  7  9  1  0  0  0  0
  9 10  1  0  0  0  0
 10 23  1  0  0  0  0
 10 11  2  0  0  0  0
 11 12  1  0  0  0  0
 11 24  1  0  0  0  0
 12 25  1  0  0  0  0
 13 26  1  0  0  0  0
 13 14  1  0  0  0  0
 13 20  1  0  0  0  0
 14 15  2  0  0  0  0
 14 16  1  0  0  0  0
 16 27  1  0  0  0  0
 16 17  1  0  0  0  0
 17 18  2  0  0  0  0
 17 19  1  0  0  0  0
 19 28  1  0  0  0  0
 19 29  1  0  0  0  0
 19 20  1  0  0  0  0
 20 30  1  0  0  0  0
 20 31  1  0  0  0  0
M  ZZC   1 n1
M  ZZC   2 c1
M  ZZC   3 c2
M  ZZC   4 c3
M  ZZC   5 o1
M  ZZC   6 n2
M  ZZC   7 c4
M  ZZC   8 o2
M  ZZC   9 c5
M  ZZC  10 c6
M  ZZC  11 c7
M  ZZC  12 c8
M  ZZC  13 c9
M  ZZC  14 c10
M  ZZC  15 o3
M  ZZC  16 n3
M  ZZC  17 c11
M  ZZC  18 o4
M  ZZC  19 c12
M  ZZC  20 c13
M  ZZC  21 h11
M  ZZC  22 h12
M  ZZC  23 h61
M  ZZC  24 h71
M  ZZC  25 h81
M  ZZC  26 h91
M  ZZC  27 h31
M  ZZC  28 h121
M  ZZC  29 h122
M  ZZC  30 h131
M  ZZC  31 h132
M  ZZM   1 40
M  ZZI   1 224
M  ZZM   2 37
M  ZZI   2 124
M  ZZM   3 37
M  ZZI   3 124
M  ZZM   4 3
M  ZZI   4 121
M  ZZM   5 7
M  ZZI   5 81
M  ZZM   6 10
M  ZZI   6 192
M  ZZM   7 3
M  ZZI   7 121
M  ZZM   8 7
M  ZZI   8 81
M  ZZM   9 37
M  ZZI   9 124
M  ZZM  10 37
M  ZZI  10 125
M  ZZM  11 37
M  ZZI  11 125
M  ZZM  12 37
M  ZZI  12 125
M  ZZM  13 1
M  ZZI  13 113
M  ZZM  14 3
M  ZZI  14 121
M  ZZM  15 7
M  ZZI  15 81
M  ZZM  16 10
M  ZZI  16 191
M  ZZM  17 3
M  ZZI  17 121
M  ZZM  18 7
M  ZZI  18 81
M  ZZM  19 1
M  ZZI  19 112
M  ZZM  20 1
M  ZZI  20 112
M  ZZM  21 28
M  ZZI  21 11
M  ZZM  22 28
M  ZZI  22 11
M  ZZM  23 5
M  ZZI  23 1
M  ZZM  24 5
M  ZZI  24 1
M  ZZM  25 5
M  ZZI  25 1
M  ZZM  26 5
M  ZZI  26 1
M  ZZM  27 28
M  ZZI  27 11
M  ZZM  28 5
M  ZZI  28 1
M  ZZM  29 5
M  ZZI  29 1
M  ZZM  30 5
M  ZZI  30 1
M  ZZM  31 5
M  ZZI  31 1
M  END
> <IX>
1

> <NAME>
Cereblon_6VS3_23.pdb

> <Score>
-21.683201

> <Natom>
31

> <Nflex>
1

> <Hbond>
-4.865927

> <Hphob>
-3.570623

> <VwInt>
-24.087608

> <Dsolv>
15.051519

> <SolEl>
6.189902

> <Eintl>
1.889244

> <RecConf>
ND

> <projPath>
Cereblon_maps/

> <NAME_>
Cereblon_6VS3_23.pdb

$$$$
