Cereblon_4QNQ_36.pdb
  MOLSOFT 04032206233D

 31 33  0  0  1  0  0  0  0  0999 V2000
   77.9946   40.6329   42.7205 N   0  0  0  0  0  0  0  0  0  0  0  0
   78.1443   41.6610   41.7743 C   0  0  0  0  0  0  0  0  0  0  0  0
   77.3030   41.7875   40.6778 C   0  0  0  0  0  0  0  0  0  0  0  0
   76.2307   40.9094   40.2164 C   0  0  0  0  0  0  0  0  0  0  0  0
   75.9847   39.8139   40.7016 O   0  0  0  0  0  0  0  0  0  0  0  0
   75.6144   41.5537   39.1598 N   0  0  0  0  0  0  0  0  0  0  0  0
   76.3468   42.6640   38.7908 C   0  0  0  0  0  0  0  0  0  0  0  0
   76.2481   43.3756   37.8026 O   0  0  0  0  0  0  0  0  0  0  0  0
   77.3841   42.8322   39.8085 C   0  0  0  0  0  0  0  0  0  0  0  0
   78.3267   43.8337   39.9526 C   0  0  0  0  0  0  0  0  0  0  0  0
   79.1757   43.7445   41.0486 C   0  0  0  0  0  0  0  0  0  0  0  0
   79.0675   42.6890   41.9562 C   0  0  0  0  0  0  0  0  0  0  0  0
   74.3682   41.0498   38.5544 C   0  0  1  0  0  0  0  0  0  0  0  0
   73.2269   41.3219   39.5248 C   0  0  0  0  0  0  0  0  0  0  0  0
   73.3995   41.6039   40.6981 O   0  0  0  0  0  0  0  0  0  0  0  0
   71.9592   41.1775   39.0208 N   0  0  0  0  0  0  0  0  0  0  0  0
   71.5870   40.9445   37.7224 C   0  0  0  0  0  0  0  0  0  0  0  0
   70.4263   40.7004   37.4306 O   0  0  0  0  0  0  0  0  0  0  0  0
   72.7073   40.9514   36.7029 C   0  0  0  0  0  0  0  0  0  0  0  0
   73.9443   41.6724   37.2239 C   0  0  0  0  0  0  0  0  0  0  0  0
   78.7750   40.4187   43.3400 H   0  0  0  0  0  0  0  0  0  0  0  0
   77.3619   39.8672   42.4850 H   0  0  0  0  0  0  0  0  0  0  0  0
   78.3899   44.6602   39.2533 H   0  0  0  0  0  0  0  0  0  0  0  0
   79.9176   44.5194   41.2155 H   0  0  0  0  0  0  0  0  0  0  0  0
   79.7222   42.6709   42.8220 H   0  0  0  0  0  0  0  0  0  0  0  0
   74.4635   39.9609   38.4674 H   0  0  0  0  0  0  0  0  0  0  0  0
   71.2053   41.2719   39.6889 H   0  0  0  0  0  0  0  0  0  0  0  0
   72.9436   39.9123   36.4500 H   0  0  0  0  0  0  0  0  0  0  0  0
   72.3482   41.4473   35.7951 H   0  0  0  0  0  0  0  0  0  0  0  0
   74.7418   41.6185   36.4816 H   0  0  0  0  0  0  0  0  0  0  0  0
   73.7140   42.7364   37.3538 H   0  0  0  0  0  0  0  0  0  0  0  0
  1  2  1  0  0  0  0
  1 21  1  0  0  0  0
  1 22  1  0  0  0  0
  2  3  1  0  0  0  0
  2 12  2  0  0  0  0
  3  9  2  0  0  0  0
  3  4  1  0  0  0  0
  4  5  2  0  0  0  0
  4  6  1  0  0  0  0
  6  7  1  0  0  0  0
 13  6  1  0  0  0  0
  7  8  2  0  0  0  0
  7  9  1  0  0  0  0
  9 10  1  0  0  0  0
 10 23  1  0  0  0  0
 10 11  2  0  0  0  0
 11 12  1  0  0  0  0
 11 24  1  0  0  0  0
 12 25  1  0  0  0  0
 13 26  1  0  0  0  0
 13 14  1  0  0  0  0
 13 20  1  0  0  0  0
 14 15  2  0  0  0  0
 14 16  1  0  0  0  0
 16 27  1  0  0  0  0
 16 17  1  0  0  0  0
 17 18  2  0  0  0  0
 17 19  1  0  0  0  0
 19 28  1  0  0  0  0
 19 29  1  0  0  0  0
 19 20  1  0  0  0  0
 20 30  1  0  0  0  0
 20 31  1  0  0  0  0
M  ZZC   1 n1
M  ZZC   2 c1
M  ZZC   3 c2
M  ZZC   4 c3
M  ZZC   5 o1
M  ZZC   6 n2
M  ZZC   7 c4
M  ZZC   8 o2
M  ZZC   9 c5
M  ZZC  10 c6
M  ZZC  11 c7
M  ZZC  12 c8
M  ZZC  13 c9
M  ZZC  14 c10
M  ZZC  15 o3
M  ZZC  16 n3
M  ZZC  17 c11
M  ZZC  18 o4
M  ZZC  19 c12
M  ZZC  20 c13
M  ZZC  21 h11
M  ZZC  22 h12
M  ZZC  23 h61
M  ZZC  24 h71
M  ZZC  25 h81
M  ZZC  26 h91
M  ZZC  27 h31
M  ZZC  28 h121
M  ZZC  29 h122
M  ZZC  30 h131
M  ZZC  31 h132
M  ZZM   1 40
M  ZZI   1 224
M  ZZM   2 37
M  ZZI   2 124
M  ZZM   3 37
M  ZZI   3 124
M  ZZM   4 3
M  ZZI   4 121
M  ZZM   5 7
M  ZZI   5 81
M  ZZM   6 10
M  ZZI   6 192
M  ZZM   7 3
M  ZZI   7 121
M  ZZM   8 7
M  ZZI   8 81
M  ZZM   9 37
M  ZZI   9 124
M  ZZM  10 37
M  ZZI  10 125
M  ZZM  11 37
M  ZZI  11 125
M  ZZM  12 37
M  ZZI  12 125
M  ZZM  13 1
M  ZZI  13 113
M  ZZM  14 3
M  ZZI  14 121
M  ZZM  15 7
M  ZZI  15 81
M  ZZM  16 10
M  ZZI  16 191
M  ZZM  17 3
M  ZZI  17 121
M  ZZM  18 7
M  ZZI  18 81
M  ZZM  19 1
M  ZZI  19 112
M  ZZM  20 1
M  ZZI  20 112
M  ZZM  21 28
M  ZZI  21 11
M  ZZM  22 28
M  ZZI  22 11
M  ZZM  23 5
M  ZZI  23 1
M  ZZM  24 5
M  ZZI  24 1
M  ZZM  25 5
M  ZZI  25 1
M  ZZM  26 5
M  ZZI  26 1
M  ZZM  27 28
M  ZZI  27 11
M  ZZM  28 5
M  ZZI  28 1
M  ZZM  29 5
M  ZZI  29 1
M  ZZM  30 5
M  ZZI  30 1
M  ZZM  31 5
M  ZZI  31 1
M  END
> <IX>
1

> <NAME>
Cereblon_4QNQ_36.pdb

> <Score>
-15.210448

> <Natom>
31

> <Nflex>
1

> <Hbond>
-2.89182

> <Hphob>
-3.740373

> <VwInt>
-27.020943

> <Dsolv>
17.241424

> <SolEl>
7.110863

> <Eintl>
5.681018

> <RecConf>
ND

> <projPath>
Cereblon_maps/

> <NAME_>
Cereblon_4QNQ_36.pdb

$$$$
