Cereblon_7NQ8_10.pdb
  MOLSOFT 04032206303D

 31 33  0  0  1  0  0  0  0  0999 V2000
   78.8174   41.6835   43.8115 N   0  0  0  0  0  0  0  0  0  0  0  0
   78.9022   42.4330   42.6281 C   0  0  0  0  0  0  0  0  0  0  0  0
   78.0988   42.1629   41.5333 C   0  0  0  0  0  0  0  0  0  0  0  0
   77.1776   41.0522   41.3287 C   0  0  0  0  0  0  0  0  0  0  0  0
   76.9936   40.1731   42.1575 O   0  0  0  0  0  0  0  0  0  0  0  0
   76.6447   41.2128   40.0651 N   0  0  0  0  0  0  0  0  0  0  0  0
   77.1656   42.3325   39.4491 C   0  0  0  0  0  0  0  0  0  0  0  0
   76.9527   42.7529   38.3193 O   0  0  0  0  0  0  0  0  0  0  0  0
   78.0964   42.9301   40.4078 C   0  0  0  0  0  0  0  0  0  0  0  0
   78.9080   44.0392   40.2851 C   0  0  0  0  0  0  0  0  0  0  0  0
   79.7255   44.3402   41.3685 C   0  0  0  0  0  0  0  0  0  0  0  0
   79.7125   43.5597   42.5261 C   0  0  0  0  0  0  0  0  0  0  0  0
   75.6248   40.3754   39.4303 C   0  0  2  0  0  0  0  0  0  0  0  0
   74.2535   40.9536   39.7355 C   0  0  0  0  0  0  0  0  0  0  0  0
   74.0831   42.1338   39.9924 O   0  0  0  0  0  0  0  0  0  0  0  0
   73.1929   40.0881   39.6220 N   0  0  0  0  0  0  0  0  0  0  0  0
   73.2179   38.7503   39.3101 C   0  0  0  0  0  0  0  0  0  0  0  0
   72.1931   38.0972   39.2011 O   0  0  0  0  0  0  0  0  0  0  0  0
   74.5812   38.1510   39.0586 C   0  0  0  0  0  0  0  0  0  0  0  0
   75.6589   38.9013   39.8212 C   0  0  0  0  0  0  0  0  0  0  0  0
   79.5369   41.7844   44.5243 H   0  0  0  0  0  0  0  0  0  0  0  0
   78.2955   40.8057   43.7889 H   0  0  0  0  0  0  0  0  0  0  0  0
   78.9009   44.6451   39.3867 H   0  0  0  0  0  0  0  0  0  0  0  0
   80.3760   45.2064   41.3211 H   0  0  0  0  0  0  0  0  0  0  0  0
   80.3476   43.8405   43.3608 H   0  0  0  0  0  0  0  0  0  0  0  0
   75.7583   40.4739   38.3518 H   0  0  0  0  0  0  0  0  0  0  0  0
   72.2775   40.4900   39.7824 H   0  0  0  0  0  0  0  0  0  0  0  0
   74.5660   37.1038   39.3769 H   0  0  0  0  0  0  0  0  0  0  0  0
   74.7692   38.1749   37.9808 H   0  0  0  0  0  0  0  0  0  0  0  0
   75.4745   38.7749   40.8920 H   0  0  0  0  0  0  0  0  0  0  0  0
   76.6437   38.4704   39.6139 H   0  0  0  0  0  0  0  0  0  0  0  0
  1  2  1  0  0  0  0
  1 21  1  0  0  0  0
  1 22  1  0  0  0  0
  2  3  1  0  0  0  0
  2 12  2  0  0  0  0
  3  9  2  0  0  0  0
  3  4  1  0  0  0  0
  4  5  2  0  0  0  0
  4  6  1  0  0  0  0
  6  7  1  0  0  0  0
 13  6  1  0  0  0  0
  7  8  2  0  0  0  0
  7  9  1  0  0  0  0
  9 10  1  0  0  0  0
 10 23  1  0  0  0  0
 10 11  2  0  0  0  0
 11 12  1  0  0  0  0
 11 24  1  0  0  0  0
 12 25  1  0  0  0  0
 13 26  1  0  0  0  0
 13 14  1  0  0  0  0
 13 20  1  0  0  0  0
 14 15  2  0  0  0  0
 14 16  1  0  0  0  0
 16 27  1  0  0  0  0
 16 17  1  0  0  0  0
 17 18  2  0  0  0  0
 17 19  1  0  0  0  0
 19 28  1  0  0  0  0
 19 29  1  0  0  0  0
 19 20  1  0  0  0  0
 20 30  1  0  0  0  0
 20 31  1  0  0  0  0
M  ZZC   1 n1
M  ZZC   2 c1
M  ZZC   3 c2
M  ZZC   4 c3
M  ZZC   5 o1
M  ZZC   6 n2
M  ZZC   7 c4
M  ZZC   8 o2
M  ZZC   9 c5
M  ZZC  10 c6
M  ZZC  11 c7
M  ZZC  12 c8
M  ZZC  13 c9
M  ZZC  14 c10
M  ZZC  15 o3
M  ZZC  16 n3
M  ZZC  17 c11
M  ZZC  18 o4
M  ZZC  19 c12
M  ZZC  20 c13
M  ZZC  21 h11
M  ZZC  22 h12
M  ZZC  23 h61
M  ZZC  24 h71
M  ZZC  25 h81
M  ZZC  26 h91
M  ZZC  27 h31
M  ZZC  28 h121
M  ZZC  29 h122
M  ZZC  30 h131
M  ZZC  31 h132
M  ZZM   1 40
M  ZZI   1 224
M  ZZM   2 37
M  ZZI   2 124
M  ZZM   3 37
M  ZZI   3 124
M  ZZM   4 3
M  ZZI   4 121
M  ZZM   5 7
M  ZZI   5 81
M  ZZM   6 10
M  ZZI   6 192
M  ZZM   7 3
M  ZZI   7 121
M  ZZM   8 7
M  ZZI   8 81
M  ZZM   9 37
M  ZZI   9 124
M  ZZM  10 37
M  ZZI  10 125
M  ZZM  11 37
M  ZZI  11 125
M  ZZM  12 37
M  ZZI  12 125
M  ZZM  13 1
M  ZZI  13 113
M  ZZM  14 3
M  ZZI  14 121
M  ZZM  15 7
M  ZZI  15 81
M  ZZM  16 10
M  ZZI  16 191
M  ZZM  17 3
M  ZZI  17 121
M  ZZM  18 7
M  ZZI  18 81
M  ZZM  19 1
M  ZZI  19 112
M  ZZM  20 1
M  ZZI  20 112
M  ZZM  21 28
M  ZZI  21 11
M  ZZM  22 28
M  ZZI  22 11
M  ZZM  23 5
M  ZZI  23 1
M  ZZM  24 5
M  ZZI  24 1
M  ZZM  25 5
M  ZZI  25 1
M  ZZM  26 5
M  ZZI  26 1
M  ZZM  27 28
M  ZZI  27 11
M  ZZM  28 5
M  ZZI  28 1
M  ZZM  29 5
M  ZZI  29 1
M  ZZM  30 5
M  ZZI  30 1
M  ZZM  31 5
M  ZZI  31 1
M  END
> <IX>
1

> <NAME>
Cereblon_7NQ8_10.pdb

> <Score>
-18.778841

> <Natom>
31

> <Nflex>
1

> <Hbond>
-3.620631

> <Hphob>
-3.565891

> <VwInt>
-24.340053

> <Dsolv>
15.099554

> <SolEl>
6.352677

> <Eintl>
1.655204

> <RecConf>
ND

> <projPath>
Cereblon_maps/

> <NAME_>
Cereblon_7NQ8_10.pdb

$$$$
