Cereblon_5J8O_6.pdb
  MOLSOFT 04032206253D

 29 31  0  0  1  0  0  0  0  0999 V2000
   79.0069   42.4920   42.6717 C   0  0  0  0  0  0  0  0  0  0  0  0
   78.1873   42.1971   41.5966 C   0  0  0  0  0  0  0  0  0  0  0  0
   77.2691   41.0794   41.4121 C   0  0  0  0  0  0  0  0  0  0  0  0
   77.0884   40.2197   42.2608 O   0  0  0  0  0  0  0  0  0  0  0  0
   76.7281   41.2210   40.1475 N   0  0  0  0  0  0  0  0  0  0  0  0
   77.2236   42.3480   39.5240 C   0  0  0  0  0  0  0  0  0  0  0  0
   76.9880   42.7655   38.3975 O   0  0  0  0  0  0  0  0  0  0  0  0
   78.1591   42.9600   40.4680 C   0  0  0  0  0  0  0  0  0  0  0  0
   78.9578   44.0762   40.3246 C   0  0  0  0  0  0  0  0  0  0  0  0
   79.8014   44.3855   41.3859 C   0  0  0  0  0  0  0  0  0  0  0  0
   79.8259   43.6074   42.5440 C   0  0  0  0  0  0  0  0  0  0  0  0
   75.7196   40.3656   39.5151 C   0  0  2  0  0  0  0  0  0  0  0  0
   74.3396   40.9336   39.8036 C   0  0  0  0  0  0  0  0  0  0  0  0
   74.1511   42.1199   40.0165 O   0  0  0  0  0  0  0  0  0  0  0  0
   73.2894   40.0516   39.7281 N   0  0  0  0  0  0  0  0  0  0  0  0
   73.3274   38.7058   39.4567 C   0  0  0  0  0  0  0  0  0  0  0  0
   72.3117   38.0322   39.4007 O   0  0  0  0  0  0  0  0  0  0  0  0
   74.6926   38.1251   39.1800 C   0  0  0  0  0  0  0  0  0  0  0  0
   75.7749   38.8952   39.9164 C   0  0  0  0  0  0  0  0  0  0  0  0
   79.0191   41.8768   43.5672 H   0  0  0  0  0  0  0  0  0  0  0  0
   78.9260   44.6777   39.4239 H   0  0  0  0  0  0  0  0  0  0  0  0
   80.4493   45.2518   41.3158 H   0  0  0  0  0  0  0  0  0  0  0  0
   80.4942   43.8765   43.3572 H   0  0  0  0  0  0  0  0  0  0  0  0
   75.8584   40.4535   38.4353 H   0  0  0  0  0  0  0  0  0  0  0  0
   72.3707   40.4448   39.8911 H   0  0  0  0  0  0  0  0  0  0  0  0
   74.7000   37.0791   39.5029 H   0  0  0  0  0  0  0  0  0  0  0  0
   74.8538   38.1472   38.0977 H   0  0  0  0  0  0  0  0  0  0  0  0
   76.7607   38.4741   39.6931 H   0  0  0  0  0  0  0  0  0  0  0  0
   75.6127   38.7750   40.9913 H   0  0  0  0  0  0  0  0  0  0  0  0
  1 20  1  0  0  0  0
  1  2  1  0  0  0  0
  1 11  2  0  0  0  0
  2  3  1  0  0  0  0
  2  8  2  0  0  0  0
  3  4  2  0  0  0  0
  3  5  1  0  0  0  0
  5  6  1  0  0  0  0
 12  5  1  0  0  0  0
  6  7  2  0  0  0  0
  6  8  1  0  0  0  0
  8  9  1  0  0  0  0
  9 21  1  0  0  0  0
  9 10  2  0  0  0  0
 10 22  1  0  0  0  0
 10 11  1  0  0  0  0
 11 23  1  0  0  0  0
 12 24  1  0  0  0  0
 12 13  1  0  0  0  0
 12 19  1  0  0  0  0
 13 14  2  0  0  0  0
 13 15  1  0  0  0  0
 15 25  1  0  0  0  0
 15 16  1  0  0  0  0
 16 17  2  0  0  0  0
 16 18  1  0  0  0  0
 18 26  1  0  0  0  0
 18 27  1  0  0  0  0
 18 19  1  0  0  0  0
 19 28  1  0  0  0  0
 19 29  1  0  0  0  0
M  ZZC   1 c1
M  ZZC   2 c2
M  ZZC   3 c3
M  ZZC   4 o1
M  ZZC   5 n1
M  ZZC   6 c4
M  ZZC   7 o2
M  ZZC   8 c5
M  ZZC   9 c6
M  ZZC  10 c7
M  ZZC  11 c8
M  ZZC  12 c9
M  ZZC  13 c10
M  ZZC  14 o3
M  ZZC  15 n2
M  ZZC  16 c11
M  ZZC  17 o4
M  ZZC  18 c12
M  ZZC  19 c13
M  ZZC  20 h11
M  ZZC  21 h61
M  ZZC  22 h71
M  ZZC  23 h81
M  ZZC  24 h91
M  ZZC  25 h21
M  ZZC  26 h121
M  ZZC  27 h122
M  ZZC  28 h131
M  ZZC  29 h132
M  ZZM   1 37
M  ZZI   1 125
M  ZZM   2 37
M  ZZI   2 124
M  ZZM   3 3
M  ZZI   3 121
M  ZZM   4 7
M  ZZI   4 81
M  ZZM   5 10
M  ZZI   5 192
M  ZZM   6 3
M  ZZI   6 121
M  ZZM   7 7
M  ZZI   7 81
M  ZZM   8 37
M  ZZI   8 124
M  ZZM   9 37
M  ZZI   9 125
M  ZZM  10 37
M  ZZI  10 125
M  ZZM  11 37
M  ZZI  11 125
M  ZZM  12 1
M  ZZI  12 113
M  ZZM  13 3
M  ZZI  13 121
M  ZZM  14 7
M  ZZI  14 81
M  ZZM  15 10
M  ZZI  15 191
M  ZZM  16 3
M  ZZI  16 121
M  ZZM  17 7
M  ZZI  17 81
M  ZZM  18 1
M  ZZI  18 112
M  ZZM  19 1
M  ZZI  19 112
M  ZZM  20 5
M  ZZI  20 1
M  ZZM  21 5
M  ZZI  21 1
M  ZZM  22 5
M  ZZI  22 1
M  ZZM  23 5
M  ZZI  23 1
M  ZZM  24 5
M  ZZI  24 1
M  ZZM  25 28
M  ZZI  25 11
M  ZZM  26 5
M  ZZI  26 1
M  ZZM  27 5
M  ZZI  27 1
M  ZZM  28 5
M  ZZI  28 1
M  ZZM  29 5
M  ZZI  29 1
M  END
> <IX>
1

> <NAME>
Cereblon_5J8O_6.pdb

> <Score>
-19.38624

> <Natom>
29

> <Nflex>
1

> <Hbond>
-3.3698

> <Hphob>
-3.56497

> <VwInt>
-22.699473

> <Dsolv>
12.097485

> <SolEl>
5.558193

> <Eintl>
1.476394

> <RecConf>
ND

> <projPath>
Cereblon_maps/

> <NAME_>
Cereblon_5J8O_6.pdb

$$$$
