Cereblon_6W8L_5.pdb
  MOLSOFT 04032206293D

 30 32  0  0  1  0  0  0  0  0999 V2000
   48.9937   61.0851   45.0129 C   0  0  0  0  0  0  0  0  0  0  0  0
   48.6827   59.7481   44.8423 C   0  0  0  0  0  0  0  0  0  0  0  0
   48.2554   59.0068   45.9087 C   0  0  0  0  0  0  0  0  0  0  0  0
   48.0143   57.6382   45.4469 C   0  0  0  0  0  0  0  0  0  0  0  0
   47.6392   56.7238   46.1669 O   0  0  0  0  0  0  0  0  0  0  0  0
   48.3129   57.6173   44.0979 N   0  0  0  0  0  0  0  0  0  0  0  0
   48.3506   56.3846   43.3022 C   0  0  2  0  0  0  0  0  0  0  0  0
   49.7486   55.7797   43.3243 C   0  0  0  0  0  0  0  0  0  0  0  0
   50.5857   56.0575   44.1697 O   0  0  0  0  0  0  0  0  0  0  0  0
   50.0043   54.8496   42.3433 N   0  0  0  0  0  0  0  0  0  0  0  0
   49.2021   54.4945   41.2829 C   0  0  0  0  0  0  0  0  0  0  0  0
   49.5182   53.6276   40.4849 O   0  0  0  0  0  0  0  0  0  0  0  0
   47.8741   55.2052   41.1828 C   0  0  0  0  0  0  0  0  0  0  0  0
   47.9149   56.5662   41.8546 C   0  0  0  0  0  0  0  0  0  0  0  0
   48.7559   58.9137   43.6133 C   0  0  0  0  0  0  0  0  0  0  0  0
   48.1304   59.5203   47.1873 C   0  0  0  0  0  0  0  0  0  0  0  0
   48.4656   60.8542   47.3663 C   0  0  0  0  0  0  0  0  0  0  0  0
   48.8879   61.6270   46.2880 C   0  0  0  0  0  0  0  0  0  0  0  0
   49.3231   61.6925   44.1769 H   0  0  0  0  0  0  0  0  0  0  0  0
   47.6972   55.6588   43.8003 H   0  0  0  0  0  0  0  0  0  0  0  0
   50.9052   54.3879   42.4008 H   0  0  0  0  0  0  0  0  0  0  0  0
   47.6237   55.3234   40.1257 H   0  0  0  0  0  0  0  0  0  0  0  0
   47.1099   54.5669   41.6386 H   0  0  0  0  0  0  0  0  0  0  0  0
   48.6130   57.2201   41.3188 H   0  0  0  0  0  0  0  0  0  0  0  0
   46.9277   57.0368   41.8029 H   0  0  0  0  0  0  0  0  0  0  0  0
   48.0714   59.2722   42.8376 H   0  0  0  0  0  0  0  0  0  0  0  0
   49.7816   58.8372   43.2370 H   0  0  0  0  0  0  0  0  0  0  0  0
   47.8052   58.9035   48.0195 H   0  0  0  0  0  0  0  0  0  0  0  0
   48.4077   61.2958   48.3565 H   0  0  0  0  0  0  0  0  0  0  0  0
   49.1482   62.6683   46.4497 H   0  0  0  0  0  0  0  0  0  0  0  0
  1 19  1  0  0  0  0
  1 18  2  0  0  0  0
  1  2  1  0  0  0  0
  2  3  2  0  0  0  0
  2 15  1  0  0  0  0
  3 16  1  0  0  0  0
  3  4  1  0  0  0  0
  4  6  1  0  0  0  0
  4  5  2  0  0  0  0
  6 15  1  0  0  0  0
  7  6  1  0  0  0  0
  7 20  1  0  0  0  0
  7  8  1  0  0  0  0
  7 14  1  0  0  0  0
  8  9  2  0  0  0  0
  8 10  1  0  0  0  0
 10 21  1  0  0  0  0
 10 11  1  0  0  0  0
 11 12  2  0  0  0  0
 11 13  1  0  0  0  0
 13 22  1  0  0  0  0
 13 23  1  0  0  0  0
 13 14  1  0  0  0  0
 14 24  1  0  0  0  0
 14 25  1  0  0  0  0
 15 26  1  0  0  0  0
 15 27  1  0  0  0  0
 16 17  2  0  0  0  0
 16 28  1  0  0  0  0
 17 18  1  0  0  0  0
 17 29  1  0  0  0  0
 18 30  1  0  0  0  0
M  ZZC   1 c1
M  ZZC   2 c2
M  ZZC   3 c3
M  ZZC   4 c4
M  ZZC   5 o1
M  ZZC   6 n1
M  ZZC   7 c5
M  ZZC   8 c6
M  ZZC   9 o2
M  ZZC  10 n2
M  ZZC  11 c7
M  ZZC  12 o3
M  ZZC  13 c8
M  ZZC  14 c9
M  ZZC  15 c10
M  ZZC  16 c11
M  ZZC  17 c12
M  ZZC  18 c13
M  ZZC  19 h11
M  ZZC  20 h51
M  ZZC  21 h21
M  ZZC  22 h81
M  ZZC  23 h82
M  ZZC  24 h91
M  ZZC  25 h92
M  ZZC  26 h101
M  ZZC  27 h102
M  ZZC  28 h111
M  ZZC  29 h121
M  ZZC  30 h131
M  ZZM   1 37
M  ZZI   1 125
M  ZZM   2 37
M  ZZI   2 124
M  ZZM   3 37
M  ZZI   3 124
M  ZZM   4 3
M  ZZI   4 121
M  ZZM   5 7
M  ZZI   5 81
M  ZZM   6 10
M  ZZI   6 192
M  ZZM   7 1
M  ZZI   7 113
M  ZZM   8 3
M  ZZI   8 121
M  ZZM   9 7
M  ZZI   9 81
M  ZZM  10 10
M  ZZI  10 191
M  ZZM  11 3
M  ZZI  11 121
M  ZZM  12 7
M  ZZI  12 81
M  ZZM  13 1
M  ZZI  13 112
M  ZZM  14 1
M  ZZI  14 112
M  ZZM  15 1
M  ZZI  15 112
M  ZZM  16 37
M  ZZI  16 125
M  ZZM  17 37
M  ZZI  17 125
M  ZZM  18 37
M  ZZI  18 125
M  ZZM  19 5
M  ZZI  19 1
M  ZZM  20 5
M  ZZI  20 1
M  ZZM  21 28
M  ZZI  21 11
M  ZZM  22 5
M  ZZI  22 1
M  ZZM  23 5
M  ZZI  23 1
M  ZZM  24 5
M  ZZI  24 1
M  ZZM  25 5
M  ZZI  25 1
M  ZZM  26 5
M  ZZI  26 1
M  ZZM  27 5
M  ZZI  27 1
M  ZZM  28 5
M  ZZI  28 1
M  ZZM  29 5
M  ZZI  29 1
M  ZZM  30 5
M  ZZI  30 1
M  END
> <IX>
1

> <NAME>
Cereblon_6W8L_5.pdb

> <Score>
-13.505503

> <Natom>
30

> <Nflex>
1

> <Hbond>
-3.92784

> <Hphob>
-2.815263

> <VwInt>
-16.315043

> <Dsolv>
12.362984

> <SolEl>
6.78463

> <Eintl>
0.471845

> <RecConf>
ND

> <projPath>
Cereblon_maps/

> <NAME_>
Cereblon_6W8L_5.pdb

$$$$
