Cereblon_5L2I_26.pdb
  MOLSOFT 04032206253D

 29 31  0  0  1  0  0  0  0  0999 V2000
   79.0033   42.4901   42.6728 C   0  0  0  0  0  0  0  0  0  0  0  0
   78.1854   42.1951   41.5964 C   0  0  0  0  0  0  0  0  0  0  0  0
   77.2673   41.0775   41.4108 C   0  0  0  0  0  0  0  0  0  0  0  0
   77.0860   40.2174   42.2589 O   0  0  0  0  0  0  0  0  0  0  0  0
   76.7269   41.2202   40.1460 N   0  0  0  0  0  0  0  0  0  0  0  0
   77.2230   42.3475   39.5232 C   0  0  0  0  0  0  0  0  0  0  0  0
   76.9879   42.7654   38.3968 O   0  0  0  0  0  0  0  0  0  0  0  0
   78.1587   42.9582   40.4679 C   0  0  0  0  0  0  0  0  0  0  0  0
   78.9578   44.0742   40.3262 C   0  0  0  0  0  0  0  0  0  0  0  0
   79.7998   44.3835   41.3885 C   0  0  0  0  0  0  0  0  0  0  0  0
   79.8225   43.6057   42.5467 C   0  0  0  0  0  0  0  0  0  0  0  0
   75.7187   40.3655   39.5128 C   0  0  2  0  0  0  0  0  0  0  0  0
   74.3387   40.9339   39.8022 C   0  0  0  0  0  0  0  0  0  0  0  0
   74.1517   42.1201   40.0169 O   0  0  0  0  0  0  0  0  0  0  0  0
   73.2886   40.0518   39.7259 N   0  0  0  0  0  0  0  0  0  0  0  0
   73.3269   38.7060   39.4551 C   0  0  0  0  0  0  0  0  0  0  0  0
   72.3113   38.0321   39.3998 O   0  0  0  0  0  0  0  0  0  0  0  0
   74.6915   38.1250   39.1771 C   0  0  0  0  0  0  0  0  0  0  0  0
   75.7735   38.8950   39.9138 C   0  0  0  0  0  0  0  0  0  0  0  0
   79.0131   41.8750   43.5683 H   0  0  0  0  0  0  0  0  0  0  0  0
   78.9269   44.6762   39.4257 H   0  0  0  0  0  0  0  0  0  0  0  0
   80.4472   45.2501   41.3197 H   0  0  0  0  0  0  0  0  0  0  0  0
   80.4884   43.8749   43.3617 H   0  0  0  0  0  0  0  0  0  0  0  0
   75.8574   40.4540   38.4332 H   0  0  0  0  0  0  0  0  0  0  0  0
   72.3701   40.4453   39.8895 H   0  0  0  0  0  0  0  0  0  0  0  0
   74.6989   37.0792   39.5006 H   0  0  0  0  0  0  0  0  0  0  0  0
   74.8520   38.1476   38.0948 H   0  0  0  0  0  0  0  0  0  0  0  0
   75.6106   38.7753   40.9885 H   0  0  0  0  0  0  0  0  0  0  0  0
   76.7592   38.4737   39.6908 H   0  0  0  0  0  0  0  0  0  0  0  0
  1 20  1  0  0  0  0
  1  2  1  0  0  0  0
  1 11  2  0  0  0  0
  2  3  1  0  0  0  0
  2  8  2  0  0  0  0
  3  4  2  0  0  0  0
  3  5  1  0  0  0  0
  5  6  1  0  0  0  0
 12  5  1  0  0  0  0
  6  7  2  0  0  0  0
  6  8  1  0  0  0  0
  8  9  1  0  0  0  0
  9 21  1  0  0  0  0
  9 10  2  0  0  0  0
 10 22  1  0  0  0  0
 10 11  1  0  0  0  0
 11 23  1  0  0  0  0
 12 24  1  0  0  0  0
 12 13  1  0  0  0  0
 12 19  1  0  0  0  0
 13 14  2  0  0  0  0
 13 15  1  0  0  0  0
 15 25  1  0  0  0  0
 15 16  1  0  0  0  0
 16 17  2  0  0  0  0
 16 18  1  0  0  0  0
 18 26  1  0  0  0  0
 18 27  1  0  0  0  0
 18 19  1  0  0  0  0
 19 28  1  0  0  0  0
 19 29  1  0  0  0  0
M  ZZC   1 c1
M  ZZC   2 c2
M  ZZC   3 c3
M  ZZC   4 o1
M  ZZC   5 n1
M  ZZC   6 c4
M  ZZC   7 o2
M  ZZC   8 c5
M  ZZC   9 c6
M  ZZC  10 c7
M  ZZC  11 c8
M  ZZC  12 c9
M  ZZC  13 c10
M  ZZC  14 o3
M  ZZC  15 n2
M  ZZC  16 c11
M  ZZC  17 o4
M  ZZC  18 c12
M  ZZC  19 c13
M  ZZC  20 h11
M  ZZC  21 h61
M  ZZC  22 h71
M  ZZC  23 h81
M  ZZC  24 h91
M  ZZC  25 h21
M  ZZC  26 h121
M  ZZC  27 h122
M  ZZC  28 h131
M  ZZC  29 h132
M  ZZM   1 37
M  ZZI   1 125
M  ZZM   2 37
M  ZZI   2 124
M  ZZM   3 3
M  ZZI   3 121
M  ZZM   4 7
M  ZZI   4 81
M  ZZM   5 10
M  ZZI   5 192
M  ZZM   6 3
M  ZZI   6 121
M  ZZM   7 7
M  ZZI   7 81
M  ZZM   8 37
M  ZZI   8 124
M  ZZM   9 37
M  ZZI   9 125
M  ZZM  10 37
M  ZZI  10 125
M  ZZM  11 37
M  ZZI  11 125
M  ZZM  12 1
M  ZZI  12 113
M  ZZM  13 3
M  ZZI  13 121
M  ZZM  14 7
M  ZZI  14 81
M  ZZM  15 10
M  ZZI  15 191
M  ZZM  16 3
M  ZZI  16 121
M  ZZM  17 7
M  ZZI  17 81
M  ZZM  18 1
M  ZZI  18 112
M  ZZM  19 1
M  ZZI  19 112
M  ZZM  20 5
M  ZZI  20 1
M  ZZM  21 5
M  ZZI  21 1
M  ZZM  22 5
M  ZZI  22 1
M  ZZM  23 5
M  ZZI  23 1
M  ZZM  24 5
M  ZZI  24 1
M  ZZM  25 28
M  ZZI  25 11
M  ZZM  26 5
M  ZZI  26 1
M  ZZM  27 5
M  ZZI  27 1
M  ZZM  28 5
M  ZZI  28 1
M  ZZM  29 5
M  ZZI  29 1
M  END
> <IX>
1

> <NAME>
Cereblon_5L2I_26.pdb

> <Score>
-19.393976

> <Natom>
29

> <Nflex>
1

> <Hbond>
-3.36929

> <Hphob>
-3.622439

> <VwInt>
-22.697657

> <Dsolv>
12.032659

> <SolEl>
5.669121

> <Eintl>
1.48151

> <RecConf>
ND

> <projPath>
Cereblon_maps/

> <NAME_>
Cereblon_5L2I_26.pdb

$$$$
