Cereblon_2GQG_30.pdb
  MOLSOFT 04032206203D

 30 32  0  0  1  0  0  0  0  0999 V2000
   77.8853   41.4324   42.1611 C   0  0  0  0  0  0  0  0  0  0  0  0
   77.1892   41.4199   40.9619 C   0  0  0  0  0  0  0  0  0  0  0  0
   77.4365   42.3705   40.0089 C   0  0  0  0  0  0  0  0  0  0  0  0
   76.5438   42.1205   38.8699 C   0  0  0  0  0  0  0  0  0  0  0  0
   76.5350   42.7681   37.8324 O   0  0  0  0  0  0  0  0  0  0  0  0
   75.7342   41.0565   39.2228 N   0  0  0  0  0  0  0  0  0  0  0  0
   74.4490   40.7722   38.5617 C   0  0  2  0  0  0  0  0  0  0  0  0
   73.3605   41.5478   39.2792 C   0  0  0  0  0  0  0  0  0  0  0  0
   73.6089   42.4479   40.0623 O   0  0  0  0  0  0  0  0  0  0  0  0
   72.0692   41.2059   38.9630 N   0  0  0  0  0  0  0  0  0  0  0  0
   71.6393   40.1279   38.2293 C   0  0  0  0  0  0  0  0  0  0  0  0
   70.4563   39.9704   37.9629 O   0  0  0  0  0  0  0  0  0  0  0  0
   72.7242   39.1858   37.7419 C   0  0  0  0  0  0  0  0  0  0  0  0
   74.0178   39.3120   38.5434 C   0  0  0  0  0  0  0  0  0  0  0  0
   76.1185   40.4965   40.5053 C   0  0  0  0  0  0  0  0  0  0  0  0
   78.3780   43.3729   40.1744 C   0  0  0  0  0  0  0  0  0  0  0  0
   79.0902   43.3820   41.3670 C   0  0  0  0  0  0  0  0  0  0  0  0
   78.8394   42.4260   42.3510 C   0  0  0  0  0  0  0  0  0  0  0  0
   77.6915   40.6962   42.9356 H   0  0  0  0  0  0  0  0  0  0  0  0
   74.4917   41.1844   37.5469 H   0  0  0  0  0  0  0  0  0  0  0  0
   71.3528   41.8220   39.3274 H   0  0  0  0  0  0  0  0  0  0  0  0
   72.3478   38.1603   37.8094 H   0  0  0  0  0  0  0  0  0  0  0  0
   72.9075   39.4071   36.6849 H   0  0  0  0  0  0  0  0  0  0  0  0
   73.8559   38.9466   39.5644 H   0  0  0  0  0  0  0  0  0  0  0  0
   74.7951   38.6803   38.1053 H   0  0  0  0  0  0  0  0  0  0  0  0
   76.4811   39.4727   40.3639 H   0  0  0  0  0  0  0  0  0  0  0  0
   75.2676   40.5278   41.1792 H   0  0  0  0  0  0  0  0  0  0  0  0
   78.5522   44.1211   39.4083 H   0  0  0  0  0  0  0  0  0  0  0  0
   79.8374   44.1498   41.5404 H   0  0  0  0  0  0  0  0  0  0  0  0
   79.3961   42.4588   43.2826 H   0  0  0  0  0  0  0  0  0  0  0  0
  1 19  1  0  0  0  0
  1 18  2  0  0  0  0
  1  2  1  0  0  0  0
  2  3  2  0  0  0  0
  2 15  1  0  0  0  0
  3 16  1  0  0  0  0
  3  4  1  0  0  0  0
  4  6  1  0  0  0  0
  4  5  2  0  0  0  0
  6 15  1  0  0  0  0
  7  6  1  0  0  0  0
  7 20  1  0  0  0  0
  7  8  1  0  0  0  0
  7 14  1  0  0  0  0
  8  9  2  0  0  0  0
  8 10  1  0  0  0  0
 10 21  1  0  0  0  0
 10 11  1  0  0  0  0
 11 12  2  0  0  0  0
 11 13  1  0  0  0  0
 13 22  1  0  0  0  0
 13 23  1  0  0  0  0
 13 14  1  0  0  0  0
 14 24  1  0  0  0  0
 14 25  1  0  0  0  0
 15 26  1  0  0  0  0
 15 27  1  0  0  0  0
 16 17  2  0  0  0  0
 16 28  1  0  0  0  0
 17 18  1  0  0  0  0
 17 29  1  0  0  0  0
 18 30  1  0  0  0  0
M  ZZC   1 c1
M  ZZC   2 c2
M  ZZC   3 c3
M  ZZC   4 c4
M  ZZC   5 o1
M  ZZC   6 n1
M  ZZC   7 c5
M  ZZC   8 c6
M  ZZC   9 o2
M  ZZC  10 n2
M  ZZC  11 c7
M  ZZC  12 o3
M  ZZC  13 c8
M  ZZC  14 c9
M  ZZC  15 c10
M  ZZC  16 c11
M  ZZC  17 c12
M  ZZC  18 c13
M  ZZC  19 h11
M  ZZC  20 h51
M  ZZC  21 h21
M  ZZC  22 h81
M  ZZC  23 h82
M  ZZC  24 h91
M  ZZC  25 h92
M  ZZC  26 h101
M  ZZC  27 h102
M  ZZC  28 h111
M  ZZC  29 h121
M  ZZC  30 h131
M  ZZM   1 37
M  ZZI   1 125
M  ZZM   2 37
M  ZZI   2 124
M  ZZM   3 37
M  ZZI   3 124
M  ZZM   4 3
M  ZZI   4 121
M  ZZM   5 7
M  ZZI   5 81
M  ZZM   6 10
M  ZZI   6 192
M  ZZM   7 1
M  ZZI   7 113
M  ZZM   8 3
M  ZZI   8 121
M  ZZM   9 7
M  ZZI   9 81
M  ZZM  10 10
M  ZZI  10 191
M  ZZM  11 3
M  ZZI  11 121
M  ZZM  12 7
M  ZZI  12 81
M  ZZM  13 1
M  ZZI  13 112
M  ZZM  14 1
M  ZZI  14 112
M  ZZM  15 1
M  ZZI  15 112
M  ZZM  16 37
M  ZZI  16 125
M  ZZM  17 37
M  ZZI  17 125
M  ZZM  18 37
M  ZZI  18 125
M  ZZM  19 5
M  ZZI  19 1
M  ZZM  20 5
M  ZZI  20 1
M  ZZM  21 28
M  ZZI  21 11
M  ZZM  22 5
M  ZZI  22 1
M  ZZM  23 5
M  ZZI  23 1
M  ZZM  24 5
M  ZZI  24 1
M  ZZM  25 5
M  ZZI  25 1
M  ZZM  26 5
M  ZZI  26 1
M  ZZM  27 5
M  ZZI  27 1
M  ZZM  28 5
M  ZZI  28 1
M  ZZM  29 5
M  ZZI  29 1
M  ZZM  30 5
M  ZZI  30 1
M  END
> <IX>
1

> <NAME>
Cereblon_2GQG_30.pdb

> <Score>
-15.279823

> <Natom>
30

> <Nflex>
1

> <Hbond>
-4.180078

> <Hphob>
-3.762369

> <VwInt>
-19.409737

> <Dsolv>
13.774054

> <SolEl>
6.593498

> <Eintl>
3.240082

> <RecConf>
ND

> <projPath>
Cereblon_maps/

> <NAME_>
Cereblon_2GQG_30.pdb

$$$$
