Cereblon_5TOB_20.pdb
  MOLSOFT 04032206263D

 29 31  0  0  1  0  0  0  0  0999 V2000
   78.9984   42.4837   42.6741 C   0  0  0  0  0  0  0  0  0  0  0  0
   78.1811   42.1911   41.5968 C   0  0  0  0  0  0  0  0  0  0  0  0
   77.2643   41.0729   41.4085 C   0  0  0  0  0  0  0  0  0  0  0  0
   77.0856   40.2096   42.2539 O   0  0  0  0  0  0  0  0  0  0  0  0
   76.7233   41.2186   40.1444 N   0  0  0  0  0  0  0  0  0  0  0  0
   77.2211   42.3459   39.5229 C   0  0  0  0  0  0  0  0  0  0  0  0
   76.9870   42.7649   38.3967 O   0  0  0  0  0  0  0  0  0  0  0  0
   78.1555   42.9557   40.4694 C   0  0  0  0  0  0  0  0  0  0  0  0
   78.9554   44.0716   40.3299 C   0  0  0  0  0  0  0  0  0  0  0  0
   79.7968   44.3788   41.3935 C   0  0  0  0  0  0  0  0  0  0  0  0
   79.8187   43.5986   42.5502 C   0  0  0  0  0  0  0  0  0  0  0  0
   75.7146   40.3652   39.5101 C   0  0  2  0  0  0  0  0  0  0  0  0
   74.3349   40.9352   39.7981 C   0  0  0  0  0  0  0  0  0  0  0  0
   74.1498   42.1212   40.0152 O   0  0  0  0  0  0  0  0  0  0  0  0
   73.2835   40.0551   39.7180 N   0  0  0  0  0  0  0  0  0  0  0  0
   73.3204   38.7096   39.4449 C   0  0  0  0  0  0  0  0  0  0  0  0
   72.3038   38.0378   39.3837 O   0  0  0  0  0  0  0  0  0  0  0  0
   74.6851   38.1264   39.1714 C   0  0  0  0  0  0  0  0  0  0  0  0
   75.7663   38.8945   39.9110 C   0  0  0  0  0  0  0  0  0  0  0  0
   79.0064   41.8672   43.5688 H   0  0  0  0  0  0  0  0  0  0  0  0
   78.9269   44.6740   39.4297 H   0  0  0  0  0  0  0  0  0  0  0  0
   80.4464   45.2438   41.3256 H   0  0  0  0  0  0  0  0  0  0  0  0
   80.4855   43.8654   43.3652 H   0  0  0  0  0  0  0  0  0  0  0  0
   75.8550   40.4537   38.4309 H   0  0  0  0  0  0  0  0  0  0  0  0
   72.3654   40.4501   39.8797 H   0  0  0  0  0  0  0  0  0  0  0  0
   74.6893   37.0806   39.4949 H   0  0  0  0  0  0  0  0  0  0  0  0
   74.8492   38.1478   38.0897 H   0  0  0  0  0  0  0  0  0  0  0  0
   75.6008   38.7748   40.9853 H   0  0  0  0  0  0  0  0  0  0  0  0
   76.7519   38.4715   39.6906 H   0  0  0  0  0  0  0  0  0  0  0  0
  1 20  1  0  0  0  0
  1  2  1  0  0  0  0
  1 11  2  0  0  0  0
  2  3  1  0  0  0  0
  2  8  2  0  0  0  0
  3  4  2  0  0  0  0
  3  5  1  0  0  0  0
  5  6  1  0  0  0  0
 12  5  1  0  0  0  0
  6  7  2  0  0  0  0
  6  8  1  0  0  0  0
  8  9  1  0  0  0  0
  9 21  1  0  0  0  0
  9 10  2  0  0  0  0
 10 22  1  0  0  0  0
 10 11  1  0  0  0  0
 11 23  1  0  0  0  0
 12 24  1  0  0  0  0
 12 13  1  0  0  0  0
 12 19  1  0  0  0  0
 13 14  2  0  0  0  0
 13 15  1  0  0  0  0
 15 25  1  0  0  0  0
 15 16  1  0  0  0  0
 16 17  2  0  0  0  0
 16 18  1  0  0  0  0
 18 26  1  0  0  0  0
 18 27  1  0  0  0  0
 18 19  1  0  0  0  0
 19 28  1  0  0  0  0
 19 29  1  0  0  0  0
M  ZZC   1 c1
M  ZZC   2 c2
M  ZZC   3 c3
M  ZZC   4 o1
M  ZZC   5 n1
M  ZZC   6 c4
M  ZZC   7 o2
M  ZZC   8 c5
M  ZZC   9 c6
M  ZZC  10 c7
M  ZZC  11 c8
M  ZZC  12 c9
M  ZZC  13 c10
M  ZZC  14 o3
M  ZZC  15 n2
M  ZZC  16 c11
M  ZZC  17 o4
M  ZZC  18 c12
M  ZZC  19 c13
M  ZZC  20 h11
M  ZZC  21 h61
M  ZZC  22 h71
M  ZZC  23 h81
M  ZZC  24 h91
M  ZZC  25 h21
M  ZZC  26 h121
M  ZZC  27 h122
M  ZZC  28 h131
M  ZZC  29 h132
M  ZZM   1 37
M  ZZI   1 125
M  ZZM   2 37
M  ZZI   2 124
M  ZZM   3 3
M  ZZI   3 121
M  ZZM   4 7
M  ZZI   4 81
M  ZZM   5 10
M  ZZI   5 192
M  ZZM   6 3
M  ZZI   6 121
M  ZZM   7 7
M  ZZI   7 81
M  ZZM   8 37
M  ZZI   8 124
M  ZZM   9 37
M  ZZI   9 125
M  ZZM  10 37
M  ZZI  10 125
M  ZZM  11 37
M  ZZI  11 125
M  ZZM  12 1
M  ZZI  12 113
M  ZZM  13 3
M  ZZI  13 121
M  ZZM  14 7
M  ZZI  14 81
M  ZZM  15 10
M  ZZI  15 191
M  ZZM  16 3
M  ZZI  16 121
M  ZZM  17 7
M  ZZI  17 81
M  ZZM  18 1
M  ZZI  18 112
M  ZZM  19 1
M  ZZI  19 112
M  ZZM  20 5
M  ZZI  20 1
M  ZZM  21 5
M  ZZI  21 1
M  ZZM  22 5
M  ZZI  22 1
M  ZZM  23 5
M  ZZI  23 1
M  ZZM  24 5
M  ZZI  24 1
M  ZZM  25 28
M  ZZI  25 11
M  ZZM  26 5
M  ZZI  26 1
M  ZZM  27 5
M  ZZI  27 1
M  ZZM  28 5
M  ZZI  28 1
M  ZZM  29 5
M  ZZI  29 1
M  END
> <IX>
1

> <NAME>
Cereblon_5TOB_20.pdb

> <Score>
-19.340912

> <Natom>
29

> <Nflex>
1

> <Hbond>
-3.368942

> <Hphob>
-3.51409

> <VwInt>
-22.71546

> <Dsolv>
12.064038

> <SolEl>
5.611612

> <Eintl>
1.501197

> <RecConf>
ND

> <projPath>
Cereblon_maps/

> <NAME_>
Cereblon_5TOB_20.pdb

$$$$
