Cereblon_6GFZ_2.pdb
  MOLSOFT 04032206283D

 31 33  0  0  1  0  0  0  0  0999 V2000
   75.3344   36.6172   39.3146 N   0  0  0  0  0  0  0  0  0  0  0  0
   75.7065   37.9075   39.7243 C   0  0  0  0  0  0  0  0  0  0  0  0
   75.0469   39.0424   39.2787 C   0  0  0  0  0  0  0  0  0  0  0  0
   73.9859   39.1753   38.2803 C   0  0  0  0  0  0  0  0  0  0  0  0
   73.4865   38.2332   37.6809 O   0  0  0  0  0  0  0  0  0  0  0  0
   73.7137   40.5243   38.1700 N   0  0  0  0  0  0  0  0  0  0  0  0
   74.4743   41.2442   39.0739 C   0  0  0  0  0  0  0  0  0  0  0  0
   74.4602   42.4344   39.3464 O   0  0  0  0  0  0  0  0  0  0  0  0
   75.3535   40.2866   39.7359 C   0  0  0  0  0  0  0  0  0  0  0  0
   76.3421   40.5060   40.6765 C   0  0  0  0  0  0  0  0  0  0  0  0
   77.0051   39.3856   41.1579 C   0  0  0  0  0  0  0  0  0  0  0  0
   76.6822   38.1087   40.6974 C   0  0  0  0  0  0  0  0  0  0  0  0
   72.6849   41.0562   37.2635 C   0  0  1  0  0  0  0  0  0  0  0  0
   71.3761   41.2678   38.0177 C   0  0  0  0  0  0  0  0  0  0  0  0
   71.0599   40.6213   39.0057 O   0  0  0  0  0  0  0  0  0  0  0  0
   70.5086   42.1848   37.4693 N   0  0  0  0  0  0  0  0  0  0  0  0
   70.7040   43.0261   36.4054 C   0  0  0  0  0  0  0  0  0  0  0  0
   69.8852   43.8848   36.1144 O   0  0  0  0  0  0  0  0  0  0  0  0
   71.9741   42.8029   35.6237 C   0  0  0  0  0  0  0  0  0  0  0  0
   73.1002   42.3298   36.5294 C   0  0  0  0  0  0  0  0  0  0  0  0
   75.9528   35.8347   39.5173 H   0  0  0  0  0  0  0  0  0  0  0  0
   74.6949   36.5329   38.5223 H   0  0  0  0  0  0  0  0  0  0  0  0
   76.5924   41.5033   41.0246 H   0  0  0  0  0  0  0  0  0  0  0  0
   77.7802   39.5063   41.9091 H   0  0  0  0  0  0  0  0  0  0  0  0
   77.2100   37.2545   41.1091 H   0  0  0  0  0  0  0  0  0  0  0  0
   72.4745   40.2797   36.5188 H   0  0  0  0  0  0  0  0  0  0  0  0
   69.6384   42.3206   37.9625 H   0  0  0  0  0  0  0  0  0  0  0  0
   71.7708   42.0754   34.8306 H   0  0  0  0  0  0  0  0  0  0  0  0
   72.2533   43.7487   35.1552 H   0  0  0  0  0  0  0  0  0  0  0  0
   73.3441   43.1289   37.2346 H   0  0  0  0  0  0  0  0  0  0  0  0
   74.0040   42.1485   35.9391 H   0  0  0  0  0  0  0  0  0  0  0  0
  1  2  1  0  0  0  0
  1 21  1  0  0  0  0
  1 22  1  0  0  0  0
  2  3  1  0  0  0  0
  2 12  2  0  0  0  0
  3  9  2  0  0  0  0
  3  4  1  0  0  0  0
  4  5  2  0  0  0  0
  4  6  1  0  0  0  0
  6  7  1  0  0  0  0
 13  6  1  0  0  0  0
  7  8  2  0  0  0  0
  7  9  1  0  0  0  0
  9 10  1  0  0  0  0
 10 23  1  0  0  0  0
 10 11  2  0  0  0  0
 11 12  1  0  0  0  0
 11 24  1  0  0  0  0
 12 25  1  0  0  0  0
 13 26  1  0  0  0  0
 13 14  1  0  0  0  0
 13 20  1  0  0  0  0
 14 15  2  0  0  0  0
 14 16  1  0  0  0  0
 16 27  1  0  0  0  0
 16 17  1  0  0  0  0
 17 18  2  0  0  0  0
 17 19  1  0  0  0  0
 19 28  1  0  0  0  0
 19 29  1  0  0  0  0
 19 20  1  0  0  0  0
 20 30  1  0  0  0  0
 20 31  1  0  0  0  0
M  ZZC   1 n1
M  ZZC   2 c1
M  ZZC   3 c2
M  ZZC   4 c3
M  ZZC   5 o1
M  ZZC   6 n2
M  ZZC   7 c4
M  ZZC   8 o2
M  ZZC   9 c5
M  ZZC  10 c6
M  ZZC  11 c7
M  ZZC  12 c8
M  ZZC  13 c9
M  ZZC  14 c10
M  ZZC  15 o3
M  ZZC  16 n3
M  ZZC  17 c11
M  ZZC  18 o4
M  ZZC  19 c12
M  ZZC  20 c13
M  ZZC  21 h11
M  ZZC  22 h12
M  ZZC  23 h61
M  ZZC  24 h71
M  ZZC  25 h81
M  ZZC  26 h91
M  ZZC  27 h31
M  ZZC  28 h121
M  ZZC  29 h122
M  ZZC  30 h131
M  ZZC  31 h132
M  ZZM   1 40
M  ZZI   1 224
M  ZZM   2 37
M  ZZI   2 124
M  ZZM   3 37
M  ZZI   3 124
M  ZZM   4 3
M  ZZI   4 121
M  ZZM   5 7
M  ZZI   5 81
M  ZZM   6 10
M  ZZI   6 192
M  ZZM   7 3
M  ZZI   7 121
M  ZZM   8 7
M  ZZI   8 81
M  ZZM   9 37
M  ZZI   9 124
M  ZZM  10 37
M  ZZI  10 125
M  ZZM  11 37
M  ZZI  11 125
M  ZZM  12 37
M  ZZI  12 125
M  ZZM  13 1
M  ZZI  13 113
M  ZZM  14 3
M  ZZI  14 121
M  ZZM  15 7
M  ZZI  15 81
M  ZZM  16 10
M  ZZI  16 191
M  ZZM  17 3
M  ZZI  17 121
M  ZZM  18 7
M  ZZI  18 81
M  ZZM  19 1
M  ZZI  19 112
M  ZZM  20 1
M  ZZI  20 112
M  ZZM  21 28
M  ZZI  21 11
M  ZZM  22 28
M  ZZI  22 11
M  ZZM  23 5
M  ZZI  23 1
M  ZZM  24 5
M  ZZI  24 1
M  ZZM  25 5
M  ZZI  25 1
M  ZZM  26 5
M  ZZI  26 1
M  ZZM  27 28
M  ZZI  27 11
M  ZZM  28 5
M  ZZI  28 1
M  ZZM  29 5
M  ZZI  29 1
M  ZZM  30 5
M  ZZI  30 1
M  ZZM  31 5
M  ZZI  31 1
M  END
> <IX>
1

> <NAME>
Cereblon_6GFZ_2.pdb

> <Score>
-20.441724

> <Natom>
31

> <Nflex>
1

> <Hbond>
-4.498353

> <Hphob>
-3.507118

> <VwInt>
-22.947965

> <Dsolv>
13.769368

> <SolEl>
7.646061

> <Eintl>
0.439028

> <RecConf>
ND

> <projPath>
Cereblon_maps/

> <NAME_>
Cereblon_6GFZ_2.pdb

$$$$
