Cereblon_1HWK_16.pdb
  MOLSOFT 04032206193D

 31 33  0  0  1  0  0  0  0  0999 V2000
   78.0727   40.6213   42.6765 N   0  0  0  0  0  0  0  0  0  0  0  0
   78.1303   41.7165   41.7995 C   0  0  0  0  0  0  0  0  0  0  0  0
   77.3089   41.8181   40.6852 C   0  0  0  0  0  0  0  0  0  0  0  0
   76.2411   40.9335   40.2244 C   0  0  0  0  0  0  0  0  0  0  0  0
   75.9871   39.8454   40.7214 O   0  0  0  0  0  0  0  0  0  0  0  0
   75.6274   41.5695   39.1611 N   0  0  0  0  0  0  0  0  0  0  0  0
   76.3585   42.6793   38.7880 C   0  0  0  0  0  0  0  0  0  0  0  0
   76.2617   43.3840   37.7946 O   0  0  0  0  0  0  0  0  0  0  0  0
   77.3910   42.8569   39.8088 C   0  0  0  0  0  0  0  0  0  0  0  0
   78.3354   43.8579   39.9455 C   0  0  0  0  0  0  0  0  0  0  0  0
   79.1975   43.7657   41.0310 C   0  0  0  0  0  0  0  0  0  0  0  0
   79.0922   42.7144   41.9432 C   0  0  0  0  0  0  0  0  0  0  0  0
   74.3842   41.0596   38.5543 C   0  0  1  0  0  0  0  0  0  0  0  0
   73.2389   41.3287   39.5210 C   0  0  0  0  0  0  0  0  0  0  0  0
   73.4065   41.6080   40.6957 O   0  0  0  0  0  0  0  0  0  0  0  0
   71.9730   41.1842   39.0124 N   0  0  0  0  0  0  0  0  0  0  0  0
   71.6049   40.9485   37.7133 C   0  0  0  0  0  0  0  0  0  0  0  0
   70.4453   40.7038   37.4178 O   0  0  0  0  0  0  0  0  0  0  0  0
   72.7288   40.9531   36.6979 C   0  0  0  0  0  0  0  0  0  0  0  0
   73.9613   41.6793   37.2220 C   0  0  0  0  0  0  0  0  0  0  0  0
   78.6486   40.6054   43.5170 H   0  0  0  0  0  0  0  0  0  0  0  0
   77.2692   39.9936   42.6207 H   0  0  0  0  0  0  0  0  0  0  0  0
   78.3992   44.6789   39.2399 H   0  0  0  0  0  0  0  0  0  0  0  0
   79.9568   44.5275   41.1778 H   0  0  0  0  0  0  0  0  0  0  0  0
   79.7786   42.6776   42.7834 H   0  0  0  0  0  0  0  0  0  0  0  0
   74.4844   39.9711   38.4692 H   0  0  0  0  0  0  0  0  0  0  0  0
   71.2170   41.2785   39.6781 H   0  0  0  0  0  0  0  0  0  0  0  0
   72.9687   39.9137   36.4499 H   0  0  0  0  0  0  0  0  0  0  0  0
   72.3722   41.4452   35.7873 H   0  0  0  0  0  0  0  0  0  0  0  0
   74.7611   41.6276   36.4822 H   0  0  0  0  0  0  0  0  0  0  0  0
   73.7262   42.7425   37.3507 H   0  0  0  0  0  0  0  0  0  0  0  0
  1  2  1  0  0  0  0
  1 21  1  0  0  0  0
  1 22  1  0  0  0  0
  2  3  1  0  0  0  0
  2 12  2  0  0  0  0
  3  9  2  0  0  0  0
  3  4  1  0  0  0  0
  4  5  2  0  0  0  0
  4  6  1  0  0  0  0
  6  7  1  0  0  0  0
 13  6  1  0  0  0  0
  7  8  2  0  0  0  0
  7  9  1  0  0  0  0
  9 10  1  0  0  0  0
 10 23  1  0  0  0  0
 10 11  2  0  0  0  0
 11 12  1  0  0  0  0
 11 24  1  0  0  0  0
 12 25  1  0  0  0  0
 13 26  1  0  0  0  0
 13 14  1  0  0  0  0
 13 20  1  0  0  0  0
 14 15  2  0  0  0  0
 14 16  1  0  0  0  0
 16 27  1  0  0  0  0
 16 17  1  0  0  0  0
 17 18  2  0  0  0  0
 17 19  1  0  0  0  0
 19 28  1  0  0  0  0
 19 29  1  0  0  0  0
 19 20  1  0  0  0  0
 20 30  1  0  0  0  0
 20 31  1  0  0  0  0
M  ZZC   1 n1
M  ZZC   2 c1
M  ZZC   3 c2
M  ZZC   4 c3
M  ZZC   5 o1
M  ZZC   6 n2
M  ZZC   7 c4
M  ZZC   8 o2
M  ZZC   9 c5
M  ZZC  10 c6
M  ZZC  11 c7
M  ZZC  12 c8
M  ZZC  13 c9
M  ZZC  14 c10
M  ZZC  15 o3
M  ZZC  16 n3
M  ZZC  17 c11
M  ZZC  18 o4
M  ZZC  19 c12
M  ZZC  20 c13
M  ZZC  21 h11
M  ZZC  22 h12
M  ZZC  23 h61
M  ZZC  24 h71
M  ZZC  25 h81
M  ZZC  26 h91
M  ZZC  27 h31
M  ZZC  28 h121
M  ZZC  29 h122
M  ZZC  30 h131
M  ZZC  31 h132
M  ZZM   1 40
M  ZZI   1 224
M  ZZM   2 37
M  ZZI   2 124
M  ZZM   3 37
M  ZZI   3 124
M  ZZM   4 3
M  ZZI   4 121
M  ZZM   5 7
M  ZZI   5 81
M  ZZM   6 10
M  ZZI   6 192
M  ZZM   7 3
M  ZZI   7 121
M  ZZM   8 7
M  ZZI   8 81
M  ZZM   9 37
M  ZZI   9 124
M  ZZM  10 37
M  ZZI  10 125
M  ZZM  11 37
M  ZZI  11 125
M  ZZM  12 37
M  ZZI  12 125
M  ZZM  13 1
M  ZZI  13 113
M  ZZM  14 3
M  ZZI  14 121
M  ZZM  15 7
M  ZZI  15 81
M  ZZM  16 10
M  ZZI  16 191
M  ZZM  17 3
M  ZZI  17 121
M  ZZM  18 7
M  ZZI  18 81
M  ZZM  19 1
M  ZZI  19 112
M  ZZM  20 1
M  ZZI  20 112
M  ZZM  21 28
M  ZZI  21 11
M  ZZM  22 28
M  ZZI  22 11
M  ZZM  23 5
M  ZZI  23 1
M  ZZM  24 5
M  ZZI  24 1
M  ZZM  25 5
M  ZZI  25 1
M  ZZM  26 5
M  ZZI  26 1
M  ZZM  27 28
M  ZZI  27 11
M  ZZM  28 5
M  ZZI  28 1
M  ZZM  29 5
M  ZZI  29 1
M  ZZM  30 5
M  ZZI  30 1
M  ZZM  31 5
M  ZZI  31 1
M  END
> <IX>
1

> <NAME>
Cereblon_1HWK_16.pdb

> <Score>
-14.512236

> <Natom>
31

> <Nflex>
1

> <Hbond>
-2.701859

> <Hphob>
-3.731788

> <VwInt>
-27.023687

> <Dsolv>
17.134021

> <SolEl>
7.400635

> <Eintl>
5.854194

> <RecConf>
ND

> <projPath>
Cereblon_maps/

> <NAME_>
Cereblon_1HWK_16.pdb

$$$$
