Cereblon_6VS3_6.pdb
  MOLSOFT 04032206293D

 30 32  0  0  1  0  0  0  0  0999 V2000
   78.9577   42.3486   42.8082 C   0  0  0  0  0  0  0  0  0  0  0  0
   78.1528   42.0555   41.7200 C   0  0  0  0  0  0  0  0  0  0  0  0
   78.1609   42.8620   40.6128 C   0  0  0  0  0  0  0  0  0  0  0  0
   77.2314   42.3018   39.6242 C   0  0  0  0  0  0  0  0  0  0  0  0
   77.0135   42.7687   38.5137 O   0  0  0  0  0  0  0  0  0  0  0  0
   76.7061   41.1569   40.1918 N   0  0  0  0  0  0  0  0  0  0  0  0
   75.6914   40.3306   39.5331 C   0  0  2  0  0  0  0  0  0  0  0  0
   74.3094   40.9170   39.7935 C   0  0  0  0  0  0  0  0  0  0  0  0
   74.1234   42.1047   40.0017 O   0  0  0  0  0  0  0  0  0  0  0  0
   73.2530   40.0432   39.7094 N   0  0  0  0  0  0  0  0  0  0  0  0
   73.2826   38.6947   39.4540 C   0  0  0  0  0  0  0  0  0  0  0  0
   72.2614   38.0299   39.3908 O   0  0  0  0  0  0  0  0  0  0  0  0
   74.6450   38.0971   39.2030 C   0  0  0  0  0  0  0  0  0  0  0  0
   75.7279   38.8629   39.9417 C   0  0  0  0  0  0  0  0  0  0  0  0
   77.2289   40.9103   41.5259 C   0  0  0  0  0  0  0  0  0  0  0  0
   78.9665   43.9788   40.5060 C   0  0  0  0  0  0  0  0  0  0  0  0
   79.7865   44.2698   41.5875 C   0  0  0  0  0  0  0  0  0  0  0  0
   79.7806   43.4657   42.7254 C   0  0  0  0  0  0  0  0  0  0  0  0
   78.9565   41.7231   43.6963 H   0  0  0  0  0  0  0  0  0  0  0  0
   75.8548   40.4217   38.4571 H   0  0  0  0  0  0  0  0  0  0  0  0
   72.3363   40.4480   39.8533 H   0  0  0  0  0  0  0  0  0  0  0  0
   74.6369   37.0549   39.5378 H   0  0  0  0  0  0  0  0  0  0  0  0
   74.8222   38.1054   38.1229 H   0  0  0  0  0  0  0  0  0  0  0  0
   75.5712   38.7582   41.0201 H   0  0  0  0  0  0  0  0  0  0  0  0
   76.7092   38.4298   39.7216 H   0  0  0  0  0  0  0  0  0  0  0  0
   77.7713   39.9589   41.5384 H   0  0  0  0  0  0  0  0  0  0  0  0
   76.4190   40.9100   42.2583 H   0  0  0  0  0  0  0  0  0  0  0  0
   78.9551   44.5985   39.6167 H   0  0  0  0  0  0  0  0  0  0  0  0
   80.4339   45.1384   41.5497 H   0  0  0  0  0  0  0  0  0  0  0  0
   80.4287   43.7150   43.5604 H   0  0  0  0  0  0  0  0  0  0  0  0
  1 19  1  0  0  0  0
  1 18  2  0  0  0  0
  1  2  1  0  0  0  0
  2  3  2  0  0  0  0
  2 15  1  0  0  0  0
  3 16  1  0  0  0  0
  3  4  1  0  0  0  0
  4  6  1  0  0  0  0
  4  5  2  0  0  0  0
  6 15  1  0  0  0  0
  7  6  1  0  0  0  0
  7 20  1  0  0  0  0
  7  8  1  0  0  0  0
  7 14  1  0  0  0  0
  8  9  2  0  0  0  0
  8 10  1  0  0  0  0
 10 21  1  0  0  0  0
 10 11  1  0  0  0  0
 11 12  2  0  0  0  0
 11 13  1  0  0  0  0
 13 22  1  0  0  0  0
 13 23  1  0  0  0  0
 13 14  1  0  0  0  0
 14 24  1  0  0  0  0
 14 25  1  0  0  0  0
 15 26  1  0  0  0  0
 15 27  1  0  0  0  0
 16 17  2  0  0  0  0
 16 28  1  0  0  0  0
 17 18  1  0  0  0  0
 17 29  1  0  0  0  0
 18 30  1  0  0  0  0
M  ZZC   1 c1
M  ZZC   2 c2
M  ZZC   3 c3
M  ZZC   4 c4
M  ZZC   5 o1
M  ZZC   6 n1
M  ZZC   7 c5
M  ZZC   8 c6
M  ZZC   9 o2
M  ZZC  10 n2
M  ZZC  11 c7
M  ZZC  12 o3
M  ZZC  13 c8
M  ZZC  14 c9
M  ZZC  15 c10
M  ZZC  16 c11
M  ZZC  17 c12
M  ZZC  18 c13
M  ZZC  19 h11
M  ZZC  20 h51
M  ZZC  21 h21
M  ZZC  22 h81
M  ZZC  23 h82
M  ZZC  24 h91
M  ZZC  25 h92
M  ZZC  26 h101
M  ZZC  27 h102
M  ZZC  28 h111
M  ZZC  29 h121
M  ZZC  30 h131
M  ZZM   1 37
M  ZZI   1 125
M  ZZM   2 37
M  ZZI   2 124
M  ZZM   3 37
M  ZZI   3 124
M  ZZM   4 3
M  ZZI   4 121
M  ZZM   5 7
M  ZZI   5 81
M  ZZM   6 10
M  ZZI   6 192
M  ZZM   7 1
M  ZZI   7 113
M  ZZM   8 3
M  ZZI   8 121
M  ZZM   9 7
M  ZZI   9 81
M  ZZM  10 10
M  ZZI  10 191
M  ZZM  11 3
M  ZZI  11 121
M  ZZM  12 7
M  ZZI  12 81
M  ZZM  13 1
M  ZZI  13 112
M  ZZM  14 1
M  ZZI  14 112
M  ZZM  15 1
M  ZZI  15 112
M  ZZM  16 37
M  ZZI  16 125
M  ZZM  17 37
M  ZZI  17 125
M  ZZM  18 37
M  ZZI  18 125
M  ZZM  19 5
M  ZZI  19 1
M  ZZM  20 5
M  ZZI  20 1
M  ZZM  21 28
M  ZZI  21 11
M  ZZM  22 5
M  ZZI  22 1
M  ZZM  23 5
M  ZZI  23 1
M  ZZM  24 5
M  ZZI  24 1
M  ZZM  25 5
M  ZZI  25 1
M  ZZM  26 5
M  ZZI  26 1
M  ZZM  27 5
M  ZZI  27 1
M  ZZM  28 5
M  ZZI  28 1
M  ZZM  29 5
M  ZZI  29 1
M  ZZM  30 5
M  ZZI  30 1
M  END
> <IX>
1

> <NAME>
Cereblon_6VS3_6.pdb

> <Score>
-18.715114

> <Natom>
30

> <Nflex>
1

> <Hbond>
-3.271083

> <Hphob>
-3.880128

> <VwInt>
-21.060222

> <Dsolv>
10.988539

> <SolEl>
5.682105

> <Eintl>
1.0484

> <RecConf>
ND

> <projPath>
Cereblon_maps/

> <NAME_>
Cereblon_6VS3_6.pdb

$$$$
