Cereblon_2VTI_12.pdb
  MOLSOFT 04032206203D

 29 31  0  0  1  0  0  0  0  0999 V2000
   79.0034   42.4898   42.6716 C   0  0  0  0  0  0  0  0  0  0  0  0
   78.1843   42.1952   41.5961 C   0  0  0  0  0  0  0  0  0  0  0  0
   77.2670   41.0770   41.4103 C   0  0  0  0  0  0  0  0  0  0  0  0
   77.0873   40.2162   42.2581 O   0  0  0  0  0  0  0  0  0  0  0  0
   76.7261   41.2195   40.1457 N   0  0  0  0  0  0  0  0  0  0  0  0
   77.2223   42.3465   39.5226 C   0  0  0  0  0  0  0  0  0  0  0  0
   76.9868   42.7644   38.3963 O   0  0  0  0  0  0  0  0  0  0  0  0
   78.1569   42.9583   40.4676 C   0  0  0  0  0  0  0  0  0  0  0  0
   78.9556   44.0746   40.3255 C   0  0  0  0  0  0  0  0  0  0  0  0
   79.7979   44.3842   41.3875 C   0  0  0  0  0  0  0  0  0  0  0  0
   79.8224   43.6055   42.5450 C   0  0  0  0  0  0  0  0  0  0  0  0
   75.7178   40.3646   39.5130 C   0  0  2  0  0  0  0  0  0  0  0  0
   74.3377   40.9330   39.8025 C   0  0  0  0  0  0  0  0  0  0  0  0
   74.1504   42.1192   40.0166 O   0  0  0  0  0  0  0  0  0  0  0  0
   73.2877   40.0507   39.7264 N   0  0  0  0  0  0  0  0  0  0  0  0
   73.3262   38.7051   39.4546 C   0  0  0  0  0  0  0  0  0  0  0  0
   72.3108   38.0311   39.3984 O   0  0  0  0  0  0  0  0  0  0  0  0
   74.6911   38.1242   39.1769 C   0  0  0  0  0  0  0  0  0  0  0  0
   75.7727   38.8941   39.9143 C   0  0  0  0  0  0  0  0  0  0  0  0
   79.0159   41.8741   43.5667 H   0  0  0  0  0  0  0  0  0  0  0  0
   78.9256   44.6754   39.4243 H   0  0  0  0  0  0  0  0  0  0  0  0
   80.4469   45.2495   41.3177 H   0  0  0  0  0  0  0  0  0  0  0  0
   80.4905   43.8732   43.3587 H   0  0  0  0  0  0  0  0  0  0  0  0
   75.8566   40.4530   38.4334 H   0  0  0  0  0  0  0  0  0  0  0  0
   72.3692   40.4442   39.8894 H   0  0  0  0  0  0  0  0  0  0  0  0
   74.6981   37.0781   39.4994 H   0  0  0  0  0  0  0  0  0  0  0  0
   74.8525   38.1471   38.0947 H   0  0  0  0  0  0  0  0  0  0  0  0
   75.6089   38.7746   40.9889 H   0  0  0  0  0  0  0  0  0  0  0  0
   76.7585   38.4727   39.6920 H   0  0  0  0  0  0  0  0  0  0  0  0
  1 20  1  0  0  0  0
  1  2  1  0  0  0  0
  1 11  2  0  0  0  0
  2  3  1  0  0  0  0
  2  8  2  0  0  0  0
  3  4  2  0  0  0  0
  3  5  1  0  0  0  0
  5  6  1  0  0  0  0
 12  5  1  0  0  0  0
  6  7  2  0  0  0  0
  6  8  1  0  0  0  0
  8  9  1  0  0  0  0
  9 21  1  0  0  0  0
  9 10  2  0  0  0  0
 10 22  1  0  0  0  0
 10 11  1  0  0  0  0
 11 23  1  0  0  0  0
 12 24  1  0  0  0  0
 12 13  1  0  0  0  0
 12 19  1  0  0  0  0
 13 14  2  0  0  0  0
 13 15  1  0  0  0  0
 15 25  1  0  0  0  0
 15 16  1  0  0  0  0
 16 17  2  0  0  0  0
 16 18  1  0  0  0  0
 18 26  1  0  0  0  0
 18 27  1  0  0  0  0
 18 19  1  0  0  0  0
 19 28  1  0  0  0  0
 19 29  1  0  0  0  0
M  ZZC   1 c1
M  ZZC   2 c2
M  ZZC   3 c3
M  ZZC   4 o1
M  ZZC   5 n1
M  ZZC   6 c4
M  ZZC   7 o2
M  ZZC   8 c5
M  ZZC   9 c6
M  ZZC  10 c7
M  ZZC  11 c8
M  ZZC  12 c9
M  ZZC  13 c10
M  ZZC  14 o3
M  ZZC  15 n2
M  ZZC  16 c11
M  ZZC  17 o4
M  ZZC  18 c12
M  ZZC  19 c13
M  ZZC  20 h11
M  ZZC  21 h61
M  ZZC  22 h71
M  ZZC  23 h81
M  ZZC  24 h91
M  ZZC  25 h21
M  ZZC  26 h121
M  ZZC  27 h122
M  ZZC  28 h131
M  ZZC  29 h132
M  ZZM   1 37
M  ZZI   1 125
M  ZZM   2 37
M  ZZI   2 124
M  ZZM   3 3
M  ZZI   3 121
M  ZZM   4 7
M  ZZI   4 81
M  ZZM   5 10
M  ZZI   5 192
M  ZZM   6 3
M  ZZI   6 121
M  ZZM   7 7
M  ZZI   7 81
M  ZZM   8 37
M  ZZI   8 124
M  ZZM   9 37
M  ZZI   9 125
M  ZZM  10 37
M  ZZI  10 125
M  ZZM  11 37
M  ZZI  11 125
M  ZZM  12 1
M  ZZI  12 113
M  ZZM  13 3
M  ZZI  13 121
M  ZZM  14 7
M  ZZI  14 81
M  ZZM  15 10
M  ZZI  15 191
M  ZZM  16 3
M  ZZI  16 121
M  ZZM  17 7
M  ZZI  17 81
M  ZZM  18 1
M  ZZI  18 112
M  ZZM  19 1
M  ZZI  19 112
M  ZZM  20 5
M  ZZI  20 1
M  ZZM  21 5
M  ZZI  21 1
M  ZZM  22 5
M  ZZI  22 1
M  ZZM  23 5
M  ZZI  23 1
M  ZZM  24 5
M  ZZI  24 1
M  ZZM  25 28
M  ZZI  25 11
M  ZZM  26 5
M  ZZI  26 1
M  ZZM  27 5
M  ZZI  27 1
M  ZZM  28 5
M  ZZI  28 1
M  ZZM  29 5
M  ZZI  29 1
M  END
> <IX>
1

> <NAME>
Cereblon_2VTI_12.pdb

> <Score>
-19.392305

> <Natom>
29

> <Nflex>
1

> <Hbond>
-3.370834

> <Hphob>
-3.521989

> <VwInt>
-22.691571

> <Dsolv>
11.992062

> <SolEl>
5.615883

> <Eintl>
1.477799

> <RecConf>
ND

> <projPath>
Cereblon_maps/

> <NAME_>
Cereblon_2VTI_12.pdb

$$$$
