Cereblon_2GQG_24.pdb
  MOLSOFT 04032206193D

 29 31  0  0  1  0  0  0  0  0999 V2000
   78.9576   44.0738   40.3188 C   0  0  0  0  0  0  0  0  0  0  0  0
   78.1587   42.9581   40.4634 C   0  0  0  0  0  0  0  0  0  0  0  0
   77.2240   42.3430   39.5198 C   0  0  0  0  0  0  0  0  0  0  0  0
   76.9850   42.7680   38.3969 O   0  0  0  0  0  0  0  0  0  0  0  0
   76.7267   41.2189   40.1462 N   0  0  0  0  0  0  0  0  0  0  0  0
   77.2668   41.0801   41.4115 C   0  0  0  0  0  0  0  0  0  0  0  0
   77.0847   40.2230   42.2624 O   0  0  0  0  0  0  0  0  0  0  0  0
   78.1858   42.1978   41.5937 C   0  0  0  0  0  0  0  0  0  0  0  0
   79.0052   42.4949   42.6684 C   0  0  0  0  0  0  0  0  0  0  0  0
   79.8254   43.6093   42.5391 C   0  0  0  0  0  0  0  0  0  0  0  0
   79.8003   44.3856   41.3798 C   0  0  0  0  0  0  0  0  0  0  0  0
   75.7178   40.3637   39.5152 C   0  0  2  0  0  0  0  0  0  0  0  0
   74.3375   40.9318   39.8035 C   0  0  0  0  0  0  0  0  0  0  0  0
   74.1506   42.1181   40.0172 O   0  0  0  0  0  0  0  0  0  0  0  0
   73.2875   40.0495   39.7275 N   0  0  0  0  0  0  0  0  0  0  0  0
   73.3260   38.7043   39.4537 C   0  0  0  0  0  0  0  0  0  0  0  0
   72.3103   38.0313   39.3918 O   0  0  0  0  0  0  0  0  0  0  0  0
   74.6914   38.1225   39.1812 C   0  0  0  0  0  0  0  0  0  0  0  0
   75.7733   38.8931   39.9170 C   0  0  0  0  0  0  0  0  0  0  0  0
   78.9272   44.6723   39.4160 H   0  0  0  0  0  0  0  0  0  0  0  0
   79.0168   41.8825   43.5657 H   0  0  0  0  0  0  0  0  0  0  0  0
   80.4921   43.8798   43.3530 H   0  0  0  0  0  0  0  0  0  0  0  0
   80.4486   45.2512   41.3073 H   0  0  0  0  0  0  0  0  0  0  0  0
   75.8558   40.4517   38.4355 H   0  0  0  0  0  0  0  0  0  0  0  0
   72.3687   40.4439   39.8871 H   0  0  0  0  0  0  0  0  0  0  0  0
   74.6971   37.0773   39.5067 H   0  0  0  0  0  0  0  0  0  0  0  0
   74.8536   38.1415   38.0991 H   0  0  0  0  0  0  0  0  0  0  0  0
   75.6114   38.7734   40.9919 H   0  0  0  0  0  0  0  0  0  0  0  0
   76.7590   38.4719   39.6937 H   0  0  0  0  0  0  0  0  0  0  0  0
  1 20  1  0  0  0  0
  1  2  1  0  0  0  0
  1 11  2  0  0  0  0
  2  3  1  0  0  0  0
  2  8  2  0  0  0  0
  3  4  2  0  0  0  0
  3  5  1  0  0  0  0
  5  6  1  0  0  0  0
 12  5  1  0  0  0  0
  6  7  2  0  0  0  0
  6  8  1  0  0  0  0
  8  9  1  0  0  0  0
  9 21  1  0  0  0  0
  9 10  2  0  0  0  0
 10 22  1  0  0  0  0
 10 11  1  0  0  0  0
 11 23  1  0  0  0  0
 12 24  1  0  0  0  0
 12 13  1  0  0  0  0
 12 19  1  0  0  0  0
 13 14  2  0  0  0  0
 13 15  1  0  0  0  0
 15 25  1  0  0  0  0
 15 16  1  0  0  0  0
 16 17  2  0  0  0  0
 16 18  1  0  0  0  0
 18 26  1  0  0  0  0
 18 27  1  0  0  0  0
 18 19  1  0  0  0  0
 19 28  1  0  0  0  0
 19 29  1  0  0  0  0
M  ZZC   1 c1
M  ZZC   2 c2
M  ZZC   3 c3
M  ZZC   4 o1
M  ZZC   5 n1
M  ZZC   6 c4
M  ZZC   7 o2
M  ZZC   8 c5
M  ZZC   9 c6
M  ZZC  10 c7
M  ZZC  11 c8
M  ZZC  12 c9
M  ZZC  13 c10
M  ZZC  14 o3
M  ZZC  15 n2
M  ZZC  16 c11
M  ZZC  17 o4
M  ZZC  18 c12
M  ZZC  19 c13
M  ZZC  20 h11
M  ZZC  21 h61
M  ZZC  22 h71
M  ZZC  23 h81
M  ZZC  24 h91
M  ZZC  25 h21
M  ZZC  26 h121
M  ZZC  27 h122
M  ZZC  28 h131
M  ZZC  29 h132
M  ZZM   1 37
M  ZZI   1 125
M  ZZM   2 37
M  ZZI   2 124
M  ZZM   3 3
M  ZZI   3 121
M  ZZM   4 7
M  ZZI   4 81
M  ZZM   5 10
M  ZZI   5 192
M  ZZM   6 3
M  ZZI   6 121
M  ZZM   7 7
M  ZZI   7 81
M  ZZM   8 37
M  ZZI   8 124
M  ZZM   9 37
M  ZZI   9 125
M  ZZM  10 37
M  ZZI  10 125
M  ZZM  11 37
M  ZZI  11 125
M  ZZM  12 1
M  ZZI  12 113
M  ZZM  13 3
M  ZZI  13 121
M  ZZM  14 7
M  ZZI  14 81
M  ZZM  15 10
M  ZZI  15 191
M  ZZM  16 3
M  ZZI  16 121
M  ZZM  17 7
M  ZZI  17 81
M  ZZM  18 1
M  ZZI  18 112
M  ZZM  19 1
M  ZZI  19 112
M  ZZM  20 5
M  ZZI  20 1
M  ZZM  21 5
M  ZZI  21 1
M  ZZM  22 5
M  ZZI  22 1
M  ZZM  23 5
M  ZZI  23 1
M  ZZM  24 5
M  ZZI  24 1
M  ZZM  25 28
M  ZZI  25 11
M  ZZM  26 5
M  ZZI  26 1
M  ZZM  27 5
M  ZZI  27 1
M  ZZM  28 5
M  ZZI  28 1
M  ZZM  29 5
M  ZZI  29 1
M  END
> <IX>
1

> <NAME>
Cereblon_2GQG_24.pdb

> <Score>
-19.353483

> <Natom>
29

> <Nflex>
1

> <Hbond>
-3.360912

> <Hphob>
-3.553853

> <VwInt>
-22.633334

> <Dsolv>
12.056194

> <SolEl>
5.551267

> <Eintl>
1.430099

> <RecConf>
ND

> <projPath>
Cereblon_maps/

> <NAME_>
Cereblon_2GQG_24.pdb

$$$$
