Cereblon_1HWK_34.pdb
  MOLSOFT 04032206193D

 30 32  0  0  1  0  0  0  0  0999 V2000
   76.0577   42.8409   38.6182 C   0  0  0  0  0  0  0  0  0  0  0  0
   74.9785   42.0611   38.2365 C   0  0  0  0  0  0  0  0  0  0  0  0
   74.7310   40.8762   38.8693 C   0  0  0  0  0  0  0  0  0  0  0  0
   73.5577   40.2580   38.2473 C   0  0  0  0  0  0  0  0  0  0  0  0
   73.1133   39.1668   38.5725 O   0  0  0  0  0  0  0  0  0  0  0  0
   73.1135   41.1325   37.2713 N   0  0  0  0  0  0  0  0  0  0  0  0
   71.9682   40.8476   36.3871 C   0  0  1  0  0  0  0  0  0  0  0  0
   70.6419   41.0170   37.1257 C   0  0  0  0  0  0  0  0  0  0  0  0
   70.1988   40.2079   37.9265 O   0  0  0  0  0  0  0  0  0  0  0  0
   69.9397   42.1662   36.8835 N   0  0  0  0  0  0  0  0  0  0  0  0
   70.2163   43.1847   36.0230 C   0  0  0  0  0  0  0  0  0  0  0  0
   69.4866   44.1588   35.9774 O   0  0  0  0  0  0  0  0  0  0  0  0
   71.4696   43.0569   35.2011 C   0  0  0  0  0  0  0  0  0  0  0  0
   71.9233   41.6094   35.0593 C   0  0  0  0  0  0  0  0  0  0  0  0
   73.9710   42.3024   37.1723 C   0  0  0  0  0  0  0  0  0  0  0  0
   75.5096   40.3965   39.9055 C   0  0  0  0  0  0  0  0  0  0  0  0
   76.5752   41.1861   40.3104 C   0  0  0  0  0  0  0  0  0  0  0  0
   76.8440   42.3938   39.6715 C   0  0  0  0  0  0  0  0  0  0  0  0
   76.2919   43.7741   38.1155 H   0  0  0  0  0  0  0  0  0  0  0  0
   72.0343   39.7798   36.1495 H   0  0  0  0  0  0  0  0  0  0  0  0
   69.0696   42.2630   37.3903 H   0  0  0  0  0  0  0  0  0  0  0  0
   71.2586   43.4626   34.2087 H   0  0  0  0  0  0  0  0  0  0  0  0
   72.2373   43.6900   35.6498 H   0  0  0  0  0  0  0  0  0  0  0  0
   71.2117   41.1017   34.3976 H   0  0  0  0  0  0  0  0  0  0  0  0
   72.8912   41.5678   34.5515 H   0  0  0  0  0  0  0  0  0  0  0  0
   73.3940   43.2065   37.3737 H   0  0  0  0  0  0  0  0  0  0  0  0
   74.4432   42.3369   36.1855 H   0  0  0  0  0  0  0  0  0  0  0  0
   75.2984   39.4445   40.3820 H   0  0  0  0  0  0  0  0  0  0  0  0
   77.2134   40.8554   41.1241 H   0  0  0  0  0  0  0  0  0  0  0  0
   77.6905   42.9908   39.9972 H   0  0  0  0  0  0  0  0  0  0  0  0
  1 19  1  0  0  0  0
  1 18  2  0  0  0  0
  1  2  1  0  0  0  0
  2  3  2  0  0  0  0
  2 15  1  0  0  0  0
  3 16  1  0  0  0  0
  3  4  1  0  0  0  0
  4  6  1  0  0  0  0
  4  5  2  0  0  0  0
  6 15  1  0  0  0  0
  7  6  1  0  0  0  0
  7 20  1  0  0  0  0
  7  8  1  0  0  0  0
  7 14  1  0  0  0  0
  8  9  2  0  0  0  0
  8 10  1  0  0  0  0
 10 21  1  0  0  0  0
 10 11  1  0  0  0  0
 11 12  2  0  0  0  0
 11 13  1  0  0  0  0
 13 22  1  0  0  0  0
 13 23  1  0  0  0  0
 13 14  1  0  0  0  0
 14 24  1  0  0  0  0
 14 25  1  0  0  0  0
 15 26  1  0  0  0  0
 15 27  1  0  0  0  0
 16 17  2  0  0  0  0
 16 28  1  0  0  0  0
 17 18  1  0  0  0  0
 17 29  1  0  0  0  0
 18 30  1  0  0  0  0
M  ZZC   1 c1
M  ZZC   2 c2
M  ZZC   3 c3
M  ZZC   4 c4
M  ZZC   5 o1
M  ZZC   6 n1
M  ZZC   7 c5
M  ZZC   8 c6
M  ZZC   9 o2
M  ZZC  10 n2
M  ZZC  11 c7
M  ZZC  12 o3
M  ZZC  13 c8
M  ZZC  14 c9
M  ZZC  15 c10
M  ZZC  16 c11
M  ZZC  17 c12
M  ZZC  18 c13
M  ZZC  19 h11
M  ZZC  20 h51
M  ZZC  21 h21
M  ZZC  22 h81
M  ZZC  23 h82
M  ZZC  24 h91
M  ZZC  25 h92
M  ZZC  26 h101
M  ZZC  27 h102
M  ZZC  28 h111
M  ZZC  29 h121
M  ZZC  30 h131
M  ZZM   1 37
M  ZZI   1 125
M  ZZM   2 37
M  ZZI   2 124
M  ZZM   3 37
M  ZZI   3 124
M  ZZM   4 3
M  ZZI   4 121
M  ZZM   5 7
M  ZZI   5 81
M  ZZM   6 10
M  ZZI   6 192
M  ZZM   7 1
M  ZZI   7 113
M  ZZM   8 3
M  ZZI   8 121
M  ZZM   9 7
M  ZZI   9 81
M  ZZM  10 10
M  ZZI  10 191
M  ZZM  11 3
M  ZZI  11 121
M  ZZM  12 7
M  ZZI  12 81
M  ZZM  13 1
M  ZZI  13 112
M  ZZM  14 1
M  ZZI  14 112
M  ZZM  15 1
M  ZZI  15 112
M  ZZM  16 37
M  ZZI  16 125
M  ZZM  17 37
M  ZZI  17 125
M  ZZM  18 37
M  ZZI  18 125
M  ZZM  19 5
M  ZZI  19 1
M  ZZM  20 5
M  ZZI  20 1
M  ZZM  21 28
M  ZZI  21 11
M  ZZM  22 5
M  ZZI  22 1
M  ZZM  23 5
M  ZZI  23 1
M  ZZM  24 5
M  ZZI  24 1
M  ZZM  25 5
M  ZZI  25 1
M  ZZM  26 5
M  ZZI  26 1
M  ZZM  27 5
M  ZZI  27 1
M  ZZM  28 5
M  ZZI  28 1
M  ZZM  29 5
M  ZZI  29 1
M  ZZM  30 5
M  ZZI  30 1
M  END
> <IX>
1

> <NAME>
Cereblon_1HWK_34.pdb

> <Score>
-14.38616

> <Natom>
30

> <Nflex>
1

> <Hbond>
-4.296089

> <Hphob>
-4.012303

> <VwInt>
-21.84147

> <Dsolv>
12.568577

> <SolEl>
11.647322

> <Eintl>
5.498321

> <RecConf>
ND

> <projPath>
Cereblon_maps/

> <NAME_>
Cereblon_1HWK_34.pdb

$$$$
