Cereblon_6YBK_10.pdb
  MOLSOFT 04032206303D

 31 33  0  0  1  0  0  0  0  0999 V2000
   78.8190   41.6760   43.8011 N   0  0  0  0  0  0  0  0  0  0  0  0
   78.8966   42.4320   42.6218 C   0  0  0  0  0  0  0  0  0  0  0  0
   78.0932   42.1625   41.5269 C   0  0  0  0  0  0  0  0  0  0  0  0
   77.1712   41.0527   41.3218 C   0  0  0  0  0  0  0  0  0  0  0  0
   76.9924   40.1706   42.1482 O   0  0  0  0  0  0  0  0  0  0  0  0
   76.6313   41.2196   40.0621 N   0  0  0  0  0  0  0  0  0  0  0  0
   77.1551   42.3368   39.4442 C   0  0  0  0  0  0  0  0  0  0  0  0
   76.9461   42.7542   38.3126 O   0  0  0  0  0  0  0  0  0  0  0  0
   78.0893   42.9321   40.4031 C   0  0  0  0  0  0  0  0  0  0  0  0
   78.9028   44.0398   40.2804 C   0  0  0  0  0  0  0  0  0  0  0  0
   79.7264   44.3351   41.3609 C   0  0  0  0  0  0  0  0  0  0  0  0
   79.7135   43.5536   42.5178 C   0  0  0  0  0  0  0  0  0  0  0  0
   75.6152   40.3786   39.4257 C   0  0  2  0  0  0  0  0  0  0  0  0
   74.2429   40.9570   39.7248 C   0  0  0  0  0  0  0  0  0  0  0  0
   74.0716   42.1353   39.9883 O   0  0  0  0  0  0  0  0  0  0  0  0
   73.1826   40.0932   39.5968 N   0  0  0  0  0  0  0  0  0  0  0  0
   73.2093   38.7561   39.2817 C   0  0  0  0  0  0  0  0  0  0  0  0
   72.1846   38.1065   39.1542 O   0  0  0  0  0  0  0  0  0  0  0  0
   74.5745   38.1520   39.0527 C   0  0  0  0  0  0  0  0  0  0  0  0
   75.6467   38.9045   39.8207 C   0  0  0  0  0  0  0  0  0  0  0  0
   79.5477   41.7613   44.5066 H   0  0  0  0  0  0  0  0  0  0  0  0
   78.2644   40.8182   43.7912 H   0  0  0  0  0  0  0  0  0  0  0  0
   78.8963   44.6466   39.3826 H   0  0  0  0  0  0  0  0  0  0  0  0
   80.3808   45.1984   41.3123 H   0  0  0  0  0  0  0  0  0  0  0  0
   80.3530   43.8302   43.3506 H   0  0  0  0  0  0  0  0  0  0  0  0
   75.7523   40.4748   38.3474 H   0  0  0  0  0  0  0  0  0  0  0  0
   72.2661   40.4957   39.7482 H   0  0  0  0  0  0  0  0  0  0  0  0
   74.5529   37.1069   39.3778 H   0  0  0  0  0  0  0  0  0  0  0  0
   74.7752   38.1675   37.9769 H   0  0  0  0  0  0  0  0  0  0  0  0
   75.4559   38.7807   40.8906 H   0  0  0  0  0  0  0  0  0  0  0  0
   76.6331   38.4743   39.6195 H   0  0  0  0  0  0  0  0  0  0  0  0
  1  2  1  0  0  0  0
  1 21  1  0  0  0  0
  1 22  1  0  0  0  0
  2  3  1  0  0  0  0
  2 12  2  0  0  0  0
  3  9  2  0  0  0  0
  3  4  1  0  0  0  0
  4  5  2  0  0  0  0
  4  6  1  0  0  0  0
  6  7  1  0  0  0  0
 13  6  1  0  0  0  0
  7  8  2  0  0  0  0
  7  9  1  0  0  0  0
  9 10  1  0  0  0  0
 10 23  1  0  0  0  0
 10 11  2  0  0  0  0
 11 12  1  0  0  0  0
 11 24  1  0  0  0  0
 12 25  1  0  0  0  0
 13 26  1  0  0  0  0
 13 14  1  0  0  0  0
 13 20  1  0  0  0  0
 14 15  2  0  0  0  0
 14 16  1  0  0  0  0
 16 27  1  0  0  0  0
 16 17  1  0  0  0  0
 17 18  2  0  0  0  0
 17 19  1  0  0  0  0
 19 28  1  0  0  0  0
 19 29  1  0  0  0  0
 19 20  1  0  0  0  0
 20 30  1  0  0  0  0
 20 31  1  0  0  0  0
M  ZZC   1 n1
M  ZZC   2 c1
M  ZZC   3 c2
M  ZZC   4 c3
M  ZZC   5 o1
M  ZZC   6 n2
M  ZZC   7 c4
M  ZZC   8 o2
M  ZZC   9 c5
M  ZZC  10 c6
M  ZZC  11 c7
M  ZZC  12 c8
M  ZZC  13 c9
M  ZZC  14 c10
M  ZZC  15 o3
M  ZZC  16 n3
M  ZZC  17 c11
M  ZZC  18 o4
M  ZZC  19 c12
M  ZZC  20 c13
M  ZZC  21 h11
M  ZZC  22 h12
M  ZZC  23 h61
M  ZZC  24 h71
M  ZZC  25 h81
M  ZZC  26 h91
M  ZZC  27 h31
M  ZZC  28 h121
M  ZZC  29 h122
M  ZZC  30 h131
M  ZZC  31 h132
M  ZZM   1 40
M  ZZI   1 224
M  ZZM   2 37
M  ZZI   2 124
M  ZZM   3 37
M  ZZI   3 124
M  ZZM   4 3
M  ZZI   4 121
M  ZZM   5 7
M  ZZI   5 81
M  ZZM   6 10
M  ZZI   6 192
M  ZZM   7 3
M  ZZI   7 121
M  ZZM   8 7
M  ZZI   8 81
M  ZZM   9 37
M  ZZI   9 124
M  ZZM  10 37
M  ZZI  10 125
M  ZZM  11 37
M  ZZI  11 125
M  ZZM  12 37
M  ZZI  12 125
M  ZZM  13 1
M  ZZI  13 113
M  ZZM  14 3
M  ZZI  14 121
M  ZZM  15 7
M  ZZI  15 81
M  ZZM  16 10
M  ZZI  16 191
M  ZZM  17 3
M  ZZI  17 121
M  ZZM  18 7
M  ZZI  18 81
M  ZZM  19 1
M  ZZI  19 112
M  ZZM  20 1
M  ZZI  20 112
M  ZZM  21 28
M  ZZI  21 11
M  ZZM  22 28
M  ZZI  22 11
M  ZZM  23 5
M  ZZI  23 1
M  ZZM  24 5
M  ZZI  24 1
M  ZZM  25 5
M  ZZI  25 1
M  ZZM  26 5
M  ZZI  26 1
M  ZZM  27 28
M  ZZI  27 11
M  ZZM  28 5
M  ZZI  28 1
M  ZZM  29 5
M  ZZI  29 1
M  ZZM  30 5
M  ZZI  30 1
M  ZZM  31 5
M  ZZI  31 1
M  END
> <IX>
1

> <NAME>
Cereblon_6YBK_10.pdb

> <Score>
-18.76034

> <Natom>
31

> <Nflex>
1

> <Hbond>
-3.608617

> <Hphob>
-3.58192

> <VwInt>
-24.39096

> <Dsolv>
15.084003

> <SolEl>
6.348545

> <Eintl>
1.762108

> <RecConf>
ND

> <projPath>
Cereblon_maps/

> <NAME_>
Cereblon_6YBK_10.pdb

$$$$
