Cereblon_6NUQ_3.pdb
  MOLSOFT 04032206293D

 30 32  0  0  1  0  0  0  0  0999 V2000
   75.6131   37.8897   39.7143 C   0  0  0  0  0  0  0  0  0  0  0  0
   74.9394   39.0030   39.2407 C   0  0  0  0  0  0  0  0  0  0  0  0
   75.2703   40.2472   39.6971 C   0  0  0  0  0  0  0  0  0  0  0  0
   74.3995   41.2237   39.0407 C   0  0  0  0  0  0  0  0  0  0  0  0
   74.4182   42.4161   39.3059 O   0  0  0  0  0  0  0  0  0  0  0  0
   73.6184   40.5201   38.1356 N   0  0  0  0  0  0  0  0  0  0  0  0
   72.5872   41.0614   37.2346 C   0  0  1  0  0  0  0  0  0  0  0  0
   71.2620   41.2676   37.9667 C   0  0  0  0  0  0  0  0  0  0  0  0
   70.9028   40.5800   38.9116 O   0  0  0  0  0  0  0  0  0  0  0  0
   70.4200   42.2175   37.4359 N   0  0  0  0  0  0  0  0  0  0  0  0
   70.6305   43.0626   36.3794 C   0  0  0  0  0  0  0  0  0  0  0  0
   69.8184   43.9272   36.0880 O   0  0  0  0  0  0  0  0  0  0  0  0
   71.9012   42.8302   35.6026 C   0  0  0  0  0  0  0  0  0  0  0  0
   73.0166   42.3365   36.5100 C   0  0  0  0  0  0  0  0  0  0  0  0
   73.8366   39.0875   38.2470 C   0  0  0  0  0  0  0  0  0  0  0  0
   76.2760   40.4731   40.6193 C   0  0  0  0  0  0  0  0  0  0  0  0
   76.9578   39.3624   41.0935 C   0  0  0  0  0  0  0  0  0  0  0  0
   76.6278   38.0862   40.6443 C   0  0  0  0  0  0  0  0  0  0  0  0
   75.3632   36.8915   39.3677 H   0  0  0  0  0  0  0  0  0  0  0  0
   72.4007   40.2922   36.4760 H   0  0  0  0  0  0  0  0  0  0  0  0
   69.5434   42.3520   37.9184 H   0  0  0  0  0  0  0  0  0  0  0  0
   71.6933   42.1110   34.8031 H   0  0  0  0  0  0  0  0  0  0  0  0
   72.1937   43.7765   35.1430 H   0  0  0  0  0  0  0  0  0  0  0  0
   73.2663   43.1281   37.2215 H   0  0  0  0  0  0  0  0  0  0  0  0
   73.9213   42.1509   35.9221 H   0  0  0  0  0  0  0  0  0  0  0  0
   74.1258   38.6797   37.2727 H   0  0  0  0  0  0  0  0  0  0  0  0
   72.9252   38.6058   38.6174 H   0  0  0  0  0  0  0  0  0  0  0  0
   76.5311   41.4743   40.9516 H   0  0  0  0  0  0  0  0  0  0  0  0
   77.7551   39.4913   41.8193 H   0  0  0  0  0  0  0  0  0  0  0  0
   77.1744   37.2299   41.0263 H   0  0  0  0  0  0  0  0  0  0  0  0
  1 19  1  0  0  0  0
  1 18  2  0  0  0  0
  1  2  1  0  0  0  0
  2  3  2  0  0  0  0
  2 15  1  0  0  0  0
  3 16  1  0  0  0  0
  3  4  1  0  0  0  0
  4  6  1  0  0  0  0
  4  5  2  0  0  0  0
  6 15  1  0  0  0  0
  7  6  1  0  0  0  0
  7 20  1  0  0  0  0
  7  8  1  0  0  0  0
  7 14  1  0  0  0  0
  8  9  2  0  0  0  0
  8 10  1  0  0  0  0
 10 21  1  0  0  0  0
 10 11  1  0  0  0  0
 11 12  2  0  0  0  0
 11 13  1  0  0  0  0
 13 22  1  0  0  0  0
 13 23  1  0  0  0  0
 13 14  1  0  0  0  0
 14 24  1  0  0  0  0
 14 25  1  0  0  0  0
 15 26  1  0  0  0  0
 15 27  1  0  0  0  0
 16 17  2  0  0  0  0
 16 28  1  0  0  0  0
 17 18  1  0  0  0  0
 17 29  1  0  0  0  0
 18 30  1  0  0  0  0
M  ZZC   1 c1
M  ZZC   2 c2
M  ZZC   3 c3
M  ZZC   4 c4
M  ZZC   5 o1
M  ZZC   6 n1
M  ZZC   7 c5
M  ZZC   8 c6
M  ZZC   9 o2
M  ZZC  10 n2
M  ZZC  11 c7
M  ZZC  12 o3
M  ZZC  13 c8
M  ZZC  14 c9
M  ZZC  15 c10
M  ZZC  16 c11
M  ZZC  17 c12
M  ZZC  18 c13
M  ZZC  19 h11
M  ZZC  20 h51
M  ZZC  21 h21
M  ZZC  22 h81
M  ZZC  23 h82
M  ZZC  24 h91
M  ZZC  25 h92
M  ZZC  26 h101
M  ZZC  27 h102
M  ZZC  28 h111
M  ZZC  29 h121
M  ZZC  30 h131
M  ZZM   1 37
M  ZZI   1 125
M  ZZM   2 37
M  ZZI   2 124
M  ZZM   3 37
M  ZZI   3 124
M  ZZM   4 3
M  ZZI   4 121
M  ZZM   5 7
M  ZZI   5 81
M  ZZM   6 10
M  ZZI   6 192
M  ZZM   7 1
M  ZZI   7 113
M  ZZM   8 3
M  ZZI   8 121
M  ZZM   9 7
M  ZZI   9 81
M  ZZM  10 10
M  ZZI  10 191
M  ZZM  11 3
M  ZZI  11 121
M  ZZM  12 7
M  ZZI  12 81
M  ZZM  13 1
M  ZZI  13 112
M  ZZM  14 1
M  ZZI  14 112
M  ZZM  15 1
M  ZZI  15 112
M  ZZM  16 37
M  ZZI  16 125
M  ZZM  17 37
M  ZZI  17 125
M  ZZM  18 37
M  ZZI  18 125
M  ZZM  19 5
M  ZZI  19 1
M  ZZM  20 5
M  ZZI  20 1
M  ZZM  21 28
M  ZZI  21 11
M  ZZM  22 5
M  ZZI  22 1
M  ZZM  23 5
M  ZZI  23 1
M  ZZM  24 5
M  ZZI  24 1
M  ZZM  25 5
M  ZZI  25 1
M  ZZM  26 5
M  ZZI  26 1
M  ZZM  27 5
M  ZZI  27 1
M  ZZM  28 5
M  ZZI  28 1
M  ZZM  29 5
M  ZZI  29 1
M  ZZM  30 5
M  ZZI  30 1
M  END
> <IX>
1

> <NAME>
Cereblon_6NUQ_3.pdb

> <Score>
-20.557453

> <Natom>
30

> <Nflex>
1

> <Hbond>
-4.689533

> <Hphob>
-3.584598

> <VwInt>
-21.820274

> <Dsolv>
13.216294

> <SolEl>
6.006863

> <Eintl>
1.753785

> <RecConf>
ND

> <projPath>
Cereblon_maps/

> <NAME_>
Cereblon_6NUQ_3.pdb

$$$$
