Cereblon_5J8O_25.pdb
  MOLSOFT 04032206253D

 31 33  0  0  1  0  0  0  0  0999 V2000
   78.8133   41.6781   43.8191 N   0  0  0  0  0  0  0  0  0  0  0  0
   78.9070   42.4228   42.6328 C   0  0  0  0  0  0  0  0  0  0  0  0
   78.1007   42.1577   41.5386 C   0  0  0  0  0  0  0  0  0  0  0  0
   77.1798   41.0470   41.3312 C   0  0  0  0  0  0  0  0  0  0  0  0
   76.9988   40.1644   42.1569 O   0  0  0  0  0  0  0  0  0  0  0  0
   76.6460   41.2109   40.0685 N   0  0  0  0  0  0  0  0  0  0  0  0
   77.1667   42.3320   39.4550 C   0  0  0  0  0  0  0  0  0  0  0  0
   76.9537   42.7547   38.3260 O   0  0  0  0  0  0  0  0  0  0  0  0
   78.0976   42.9274   40.4149 C   0  0  0  0  0  0  0  0  0  0  0  0
   78.9084   44.0374   40.2949 C   0  0  0  0  0  0  0  0  0  0  0  0
   79.7240   44.3373   41.3798 C   0  0  0  0  0  0  0  0  0  0  0  0
   79.7115   43.5542   42.5356 C   0  0  0  0  0  0  0  0  0  0  0  0
   75.6261   40.3745   39.4318 C   0  0  2  0  0  0  0  0  0  0  0  0
   74.2549   40.9544   39.7353 C   0  0  0  0  0  0  0  0  0  0  0  0
   74.0852   42.1344   39.9932 O   0  0  0  0  0  0  0  0  0  0  0  0
   73.1935   40.0903   39.6195 N   0  0  0  0  0  0  0  0  0  0  0  0
   73.2173   38.7521   39.3091 C   0  0  0  0  0  0  0  0  0  0  0  0
   72.1920   38.0994   39.2019 O   0  0  0  0  0  0  0  0  0  0  0  0
   74.5802   38.1522   39.0572 C   0  0  0  0  0  0  0  0  0  0  0  0
   75.6578   38.9003   39.8219 C   0  0  0  0  0  0  0  0  0  0  0  0
   79.5540   41.7604   44.5120 H   0  0  0  0  0  0  0  0  0  0  0  0
   78.3239   40.7829   43.7763 H   0  0  0  0  0  0  0  0  0  0  0  0
   78.9014   44.6455   39.3982 H   0  0  0  0  0  0  0  0  0  0  0  0
   80.3723   45.2056   41.3356 H   0  0  0  0  0  0  0  0  0  0  0  0
   80.3438   43.8357   43.3723 H   0  0  0  0  0  0  0  0  0  0  0  0
   75.7615   40.4737   38.3536 H   0  0  0  0  0  0  0  0  0  0  0  0
   72.2785   40.4930   39.7795 H   0  0  0  0  0  0  0  0  0  0  0  0
   74.5628   37.1044   39.3728 H   0  0  0  0  0  0  0  0  0  0  0  0
   74.7689   38.1782   37.9796 H   0  0  0  0  0  0  0  0  0  0  0  0
   76.6423   38.4682   39.6159 H   0  0  0  0  0  0  0  0  0  0  0  0
   75.4724   38.7738   40.8924 H   0  0  0  0  0  0  0  0  0  0  0  0
  1  2  1  0  0  0  0
  1 21  1  0  0  0  0
  1 22  1  0  0  0  0
  2  3  1  0  0  0  0
  2 12  2  0  0  0  0
  3  9  2  0  0  0  0
  3  4  1  0  0  0  0
  4  5  2  0  0  0  0
  4  6  1  0  0  0  0
  6  7  1  0  0  0  0
 13  6  1  0  0  0  0
  7  8  2  0  0  0  0
  7  9  1  0  0  0  0
  9 10  1  0  0  0  0
 10 23  1  0  0  0  0
 10 11  2  0  0  0  0
 11 12  1  0  0  0  0
 11 24  1  0  0  0  0
 12 25  1  0  0  0  0
 13 26  1  0  0  0  0
 13 14  1  0  0  0  0
 13 20  1  0  0  0  0
 14 15  2  0  0  0  0
 14 16  1  0  0  0  0
 16 27  1  0  0  0  0
 16 17  1  0  0  0  0
 17 18  2  0  0  0  0
 17 19  1  0  0  0  0
 19 28  1  0  0  0  0
 19 29  1  0  0  0  0
 19 20  1  0  0  0  0
 20 30  1  0  0  0  0
 20 31  1  0  0  0  0
M  ZZC   1 n1
M  ZZC   2 c1
M  ZZC   3 c2
M  ZZC   4 c3
M  ZZC   5 o1
M  ZZC   6 n2
M  ZZC   7 c4
M  ZZC   8 o2
M  ZZC   9 c5
M  ZZC  10 c6
M  ZZC  11 c7
M  ZZC  12 c8
M  ZZC  13 c9
M  ZZC  14 c10
M  ZZC  15 o3
M  ZZC  16 n3
M  ZZC  17 c11
M  ZZC  18 o4
M  ZZC  19 c12
M  ZZC  20 c13
M  ZZC  21 h11
M  ZZC  22 h12
M  ZZC  23 h61
M  ZZC  24 h71
M  ZZC  25 h81
M  ZZC  26 h91
M  ZZC  27 h31
M  ZZC  28 h121
M  ZZC  29 h122
M  ZZC  30 h131
M  ZZC  31 h132
M  ZZM   1 40
M  ZZI   1 224
M  ZZM   2 37
M  ZZI   2 124
M  ZZM   3 37
M  ZZI   3 124
M  ZZM   4 3
M  ZZI   4 121
M  ZZM   5 7
M  ZZI   5 81
M  ZZM   6 10
M  ZZI   6 192
M  ZZM   7 3
M  ZZI   7 121
M  ZZM   8 7
M  ZZI   8 81
M  ZZM   9 37
M  ZZI   9 124
M  ZZM  10 37
M  ZZI  10 125
M  ZZM  11 37
M  ZZI  11 125
M  ZZM  12 37
M  ZZI  12 125
M  ZZM  13 1
M  ZZI  13 113
M  ZZM  14 3
M  ZZI  14 121
M  ZZM  15 7
M  ZZI  15 81
M  ZZM  16 10
M  ZZI  16 191
M  ZZM  17 3
M  ZZI  17 121
M  ZZM  18 7
M  ZZI  18 81
M  ZZM  19 1
M  ZZI  19 112
M  ZZM  20 1
M  ZZI  20 112
M  ZZM  21 28
M  ZZI  21 11
M  ZZM  22 28
M  ZZI  22 11
M  ZZM  23 5
M  ZZI  23 1
M  ZZM  24 5
M  ZZI  24 1
M  ZZM  25 5
M  ZZI  25 1
M  ZZM  26 5
M  ZZI  26 1
M  ZZM  27 28
M  ZZI  27 11
M  ZZM  28 5
M  ZZI  28 1
M  ZZM  29 5
M  ZZI  29 1
M  ZZM  30 5
M  ZZI  30 1
M  ZZM  31 5
M  ZZI  31 1
M  END
> <IX>
1

> <NAME>
Cereblon_5J8O_25.pdb

> <Score>
-18.390615

> <Natom>
31

> <Nflex>
1

> <Hbond>
-3.720148

> <Hphob>
-3.543659

> <VwInt>
-24.186097

> <Dsolv>
15.179586

> <SolEl>
6.93733

> <Eintl>
1.697299

> <RecConf>
ND

> <projPath>
Cereblon_maps/

> <NAME_>
Cereblon_5J8O_25.pdb

$$$$
