Cereblon_6NUQ_22.pdb
  MOLSOFT 04032206293D

 30 32  0  0  1  0  0  0  0  0999 V2000
   76.1657   41.2813   40.0334 C   0  0  0  0  0  0  0  0  0  0  0  0
   75.1563   40.8969   39.1677 C   0  0  0  0  0  0  0  0  0  0  0  0
   74.8372   39.5758   39.0196 C   0  0  0  0  0  0  0  0  0  0  0  0
   73.7389   39.4728   38.0511 C   0  0  0  0  0  0  0  0  0  0  0  0
   73.2162   38.4208   37.7123 O   0  0  0  0  0  0  0  0  0  0  0  0
   73.4419   40.7630   37.6521 N   0  0  0  0  0  0  0  0  0  0  0  0
   72.2845   41.1291   36.8225 C   0  0  1  0  0  0  0  0  0  0  0  0
   71.0673   41.3431   37.7263 C   0  0  0  0  0  0  0  0  0  0  0  0
   70.8583   40.6972   38.7428 O   0  0  0  0  0  0  0  0  0  0  0  0
   70.1473   42.2699   37.2996 N   0  0  0  0  0  0  0  0  0  0  0  0
   70.1720   43.0544   36.1803 C   0  0  0  0  0  0  0  0  0  0  0  0
   69.3365   43.9260   36.0031 O   0  0  0  0  0  0  0  0  0  0  0  0
   71.2759   42.7509   35.2041 C   0  0  0  0  0  0  0  0  0  0  0  0
   72.5373   42.3616   35.9531 C   0  0  0  0  0  0  0  0  0  0  0  0
   74.2841   41.7409   38.3148 C   0  0  0  0  0  0  0  0  0  0  0  0
   75.4793   38.5660   39.7131 C   0  0  0  0  0  0  0  0  0  0  0  0
   76.4891   38.9445   40.5874 C   0  0  0  0  0  0  0  0  0  0  0  0
   76.8245   40.2869   40.7456 C   0  0  0  0  0  0  0  0  0  0  0  0
   76.4411   42.3246   40.1559 H   0  0  0  0  0  0  0  0  0  0  0  0
   72.0435   40.2695   36.1866 H   0  0  0  0  0  0  0  0  0  0  0  0
   69.3595   42.4252   37.9116 H   0  0  0  0  0  0  0  0  0  0  0  0
   70.9445   41.9486   34.5363 H   0  0  0  0  0  0  0  0  0  0  0  0
   71.4578   43.6445   34.6012 H   0  0  0  0  0  0  0  0  0  0  0  0
   73.3484   42.1616   35.2460 H   0  0  0  0  0  0  0  0  0  0  0  0
   72.8561   43.2117   36.5673 H   0  0  0  0  0  0  0  0  0  0  0  0
   73.6573   42.3969   38.9211 H   0  0  0  0  0  0  0  0  0  0  0  0
   74.8623   42.3020   37.5722 H   0  0  0  0  0  0  0  0  0  0  0  0
   75.2048   37.5240   39.5818 H   0  0  0  0  0  0  0  0  0  0  0  0
   77.0232   38.1880   41.1535 H   0  0  0  0  0  0  0  0  0  0  0  0
   77.6180   40.5624   41.4335 H   0  0  0  0  0  0  0  0  0  0  0  0
  1 19  1  0  0  0  0
  1 18  2  0  0  0  0
  1  2  1  0  0  0  0
  2  3  2  0  0  0  0
  2 15  1  0  0  0  0
  3 16  1  0  0  0  0
  3  4  1  0  0  0  0
  4  6  1  0  0  0  0
  4  5  2  0  0  0  0
  6 15  1  0  0  0  0
  7  6  1  0  0  0  0
  7 20  1  0  0  0  0
  7  8  1  0  0  0  0
  7 14  1  0  0  0  0
  8  9  2  0  0  0  0
  8 10  1  0  0  0  0
 10 21  1  0  0  0  0
 10 11  1  0  0  0  0
 11 12  2  0  0  0  0
 11 13  1  0  0  0  0
 13 22  1  0  0  0  0
 13 23  1  0  0  0  0
 13 14  1  0  0  0  0
 14 24  1  0  0  0  0
 14 25  1  0  0  0  0
 15 26  1  0  0  0  0
 15 27  1  0  0  0  0
 16 17  2  0  0  0  0
 16 28  1  0  0  0  0
 17 18  1  0  0  0  0
 17 29  1  0  0  0  0
 18 30  1  0  0  0  0
M  ZZC   1 c1
M  ZZC   2 c2
M  ZZC   3 c3
M  ZZC   4 c4
M  ZZC   5 o1
M  ZZC   6 n1
M  ZZC   7 c5
M  ZZC   8 c6
M  ZZC   9 o2
M  ZZC  10 n2
M  ZZC  11 c7
M  ZZC  12 o3
M  ZZC  13 c8
M  ZZC  14 c9
M  ZZC  15 c10
M  ZZC  16 c11
M  ZZC  17 c12
M  ZZC  18 c13
M  ZZC  19 h11
M  ZZC  20 h51
M  ZZC  21 h21
M  ZZC  22 h81
M  ZZC  23 h82
M  ZZC  24 h91
M  ZZC  25 h92
M  ZZC  26 h101
M  ZZC  27 h102
M  ZZC  28 h111
M  ZZC  29 h121
M  ZZC  30 h131
M  ZZM   1 37
M  ZZI   1 125
M  ZZM   2 37
M  ZZI   2 124
M  ZZM   3 37
M  ZZI   3 124
M  ZZM   4 3
M  ZZI   4 121
M  ZZM   5 7
M  ZZI   5 81
M  ZZM   6 10
M  ZZI   6 192
M  ZZM   7 1
M  ZZI   7 113
M  ZZM   8 3
M  ZZI   8 121
M  ZZM   9 7
M  ZZI   9 81
M  ZZM  10 10
M  ZZI  10 191
M  ZZM  11 3
M  ZZI  11 121
M  ZZM  12 7
M  ZZI  12 81
M  ZZM  13 1
M  ZZI  13 112
M  ZZM  14 1
M  ZZI  14 112
M  ZZM  15 1
M  ZZI  15 112
M  ZZM  16 37
M  ZZI  16 125
M  ZZM  17 37
M  ZZI  17 125
M  ZZM  18 37
M  ZZI  18 125
M  ZZM  19 5
M  ZZI  19 1
M  ZZM  20 5
M  ZZI  20 1
M  ZZM  21 28
M  ZZI  21 11
M  ZZM  22 5
M  ZZI  22 1
M  ZZM  23 5
M  ZZI  23 1
M  ZZM  24 5
M  ZZI  24 1
M  ZZM  25 5
M  ZZI  25 1
M  ZZM  26 5
M  ZZI  26 1
M  ZZM  27 5
M  ZZI  27 1
M  ZZM  28 5
M  ZZI  28 1
M  ZZM  29 5
M  ZZI  29 1
M  ZZM  30 5
M  ZZI  30 1
M  END
> <IX>
1

> <NAME>
Cereblon_6NUQ_22.pdb

> <Score>
-17.696495

> <Natom>
30

> <Nflex>
1

> <Hbond>
-3.304998

> <Hphob>
-3.931672

> <VwInt>
-22.596364

> <Dsolv>
11.763249

> <SolEl>
8.840935

> <Eintl>
1.063801

> <RecConf>
ND

> <projPath>
Cereblon_maps/

> <NAME_>
Cereblon_6NUQ_22.pdb

$$$$
