Cereblon_2VTI_21.pdb
  MOLSOFT 04032206213D

 32 34  0  0  1  0  0  0  0  0999 V2000
   78.5471   41.5840   43.9788 N   0  0  0  0  0  0  0  0  0  0  0  0
   78.6597   42.3462   42.8065 C   0  0  0  0  0  0  0  0  0  0  0  0
   77.9584   42.0150   41.6589 C   0  0  0  0  0  0  0  0  0  0  0  0
   78.0588   42.7821   40.5282 C   0  0  0  0  0  0  0  0  0  0  0  0
   77.1571   42.2258   39.5096 C   0  0  0  0  0  0  0  0  0  0  0  0
   76.9899   42.6879   38.3883 O   0  0  0  0  0  0  0  0  0  0  0  0
   76.5727   41.1124   40.0781 N   0  0  0  0  0  0  0  0  0  0  0  0
   75.5301   40.3254   39.4183 C   0  0  2  0  0  0  0  0  0  0  0  0
   74.1717   40.9526   39.6921 C   0  0  0  0  0  0  0  0  0  0  0  0
   74.0207   42.1336   39.9574 O   0  0  0  0  0  0  0  0  0  0  0  0
   73.0849   40.1214   39.5646 N   0  0  0  0  0  0  0  0  0  0  0  0
   73.0726   38.7784   39.2766 C   0  0  0  0  0  0  0  0  0  0  0  0
   72.0300   38.1550   39.1623 O   0  0  0  0  0  0  0  0  0  0  0  0
   74.4206   38.1329   39.0541 C   0  0  0  0  0  0  0  0  0  0  0  0
   75.5135   38.8565   39.8206 C   0  0  0  0  0  0  0  0  0  0  0  0
   77.0354   40.8760   41.4325 C   0  0  0  0  0  0  0  0  0  0  0  0
   78.9095   43.8661   40.4320 C   0  0  0  0  0  0  0  0  0  0  0  0
   79.6897   44.1510   41.5433 C   0  0  0  0  0  0  0  0  0  0  0  0
   79.5681   43.3977   42.7100 C   0  0  0  0  0  0  0  0  0  0  0  0
   78.8598   42.0015   44.8538 H   0  0  0  0  0  0  0  0  0  0  0  0
   77.8096   40.8878   44.0489 H   0  0  0  0  0  0  0  0  0  0  0  0
   75.6915   40.4204   38.3438 H   0  0  0  0  0  0  0  0  0  0  0  0
   72.1812   40.5554   39.7056 H   0  0  0  0  0  0  0  0  0  0  0  0
   74.3679   37.0917   39.3876 H   0  0  0  0  0  0  0  0  0  0  0  0
   74.6270   38.1361   37.9789 H   0  0  0  0  0  0  0  0  0  0  0  0
   76.4846   38.3926   39.6201 H   0  0  0  0  0  0  0  0  0  0  0  0
   75.3293   38.7515   40.8946 H   0  0  0  0  0  0  0  0  0  0  0  0
   77.5643   39.9178   41.4770 H   0  0  0  0  0  0  0  0  0  0  0  0
   76.1924   40.8882   42.1232 H   0  0  0  0  0  0  0  0  0  0  0  0
   78.9779   44.4517   39.5225 H   0  0  0  0  0  0  0  0  0  0  0  0
   80.3918   44.9770   41.5089 H   0  0  0  0  0  0  0  0  0  0  0  0
   80.1889   43.6489   43.5644 H   0  0  0  0  0  0  0  0  0  0  0  0
  1  2  1  0  0  0  0
  1 20  1  0  0  0  0
  1 21  1  0  0  0  0
  2  3  1  0  0  0  0
  2 19  2  0  0  0  0
  3 16  1  0  0  0  0
  3  4  2  0  0  0  0
  4 17  1  0  0  0  0
  4  5  1  0  0  0  0
  5  6  2  0  0  0  0
  5  7  1  0  0  0  0
  8  7  1  0  0  0  0
  7 16  1  0  0  0  0
  8  9  1  0  0  0  0
  8 22  1  0  0  0  0
  8 15  1  0  0  0  0
  9 11  1  0  0  0  0
  9 10  2  0  0  0  0
 11 12  1  0  0  0  0
 11 23  1  0  0  0  0
 12 14  1  0  0  0  0
 12 13  2  0  0  0  0
 14 24  1  0  0  0  0
 14 25  1  0  0  0  0
 14 15  1  0  0  0  0
 15 26  1  0  0  0  0
 15 27  1  0  0  0  0
 16 28  1  0  0  0  0
 16 29  1  0  0  0  0
 17 18  2  0  0  0  0
 17 30  1  0  0  0  0
 18 19  1  0  0  0  0
 18 31  1  0  0  0  0
 19 32  1  0  0  0  0
M  ZZC   1 n1
M  ZZC   2 c1
M  ZZC   3 c2
M  ZZC   4 c3
M  ZZC   5 c4
M  ZZC   6 o1
M  ZZC   7 n2
M  ZZC   8 c5
M  ZZC   9 c6
M  ZZC  10 o2
M  ZZC  11 n3
M  ZZC  12 c7
M  ZZC  13 o3
M  ZZC  14 c8
M  ZZC  15 c9
M  ZZC  16 c10
M  ZZC  17 c11
M  ZZC  18 c12
M  ZZC  19 c13
M  ZZC  20 h11
M  ZZC  21 h12
M  ZZC  22 h51
M  ZZC  23 h31
M  ZZC  24 h81
M  ZZC  25 h82
M  ZZC  26 h91
M  ZZC  27 h92
M  ZZC  28 h101
M  ZZC  29 h102
M  ZZC  30 h111
M  ZZC  31 h121
M  ZZC  32 h131
M  ZZM   1 40
M  ZZI   1 224
M  ZZM   2 37
M  ZZI   2 124
M  ZZM   3 37
M  ZZI   3 124
M  ZZM   4 37
M  ZZI   4 124
M  ZZM   5 3
M  ZZI   5 121
M  ZZM   6 7
M  ZZI   6 81
M  ZZM   7 10
M  ZZI   7 192
M  ZZM   8 1
M  ZZI   8 113
M  ZZM   9 3
M  ZZI   9 121
M  ZZM  10 7
M  ZZI  10 81
M  ZZM  11 10
M  ZZI  11 191
M  ZZM  12 3
M  ZZI  12 121
M  ZZM  13 7
M  ZZI  13 81
M  ZZM  14 1
M  ZZI  14 112
M  ZZM  15 1
M  ZZI  15 112
M  ZZM  16 1
M  ZZI  16 112
M  ZZM  17 37
M  ZZI  17 125
M  ZZM  18 37
M  ZZI  18 125
M  ZZM  19 37
M  ZZI  19 125
M  ZZM  20 28
M  ZZI  20 11
M  ZZM  21 28
M  ZZI  21 11
M  ZZM  22 5
M  ZZI  22 1
M  ZZM  23 28
M  ZZI  23 11
M  ZZM  24 5
M  ZZI  24 1
M  ZZM  25 5
M  ZZI  25 1
M  ZZM  26 5
M  ZZI  26 1
M  ZZM  27 5
M  ZZI  27 1
M  ZZM  28 5
M  ZZI  28 1
M  ZZM  29 5
M  ZZI  29 1
M  ZZM  30 5
M  ZZI  30 1
M  ZZM  31 5
M  ZZI  31 1
M  ZZM  32 5
M  ZZI  32 1
M  END
> <IX>
1

> <NAME>
Cereblon_2VTI_21.pdb

> <Score>
-22.263603

> <Natom>
32

> <Nflex>
1

> <Hbond>
-4.732173

> <Hphob>
-3.899472

> <VwInt>
-22.764039

> <Dsolv>
14.302668

> <SolEl>
4.652065

> <Eintl>
1.146859

> <RecConf>
ND

> <projPath>
Cereblon_maps/

> <NAME_>
Cereblon_2VTI_21.pdb

$$$$
