Cereblon_5TRF_9.pdb
  MOLSOFT 04032206273D

 31 33  0  0  1  0  0  0  0  0999 V2000
   76.8778   41.5660   40.9111 N   0  0  0  0  0  0  0  0  0  0  0  0
   76.4335   40.3154   40.4569 C   0  0  0  0  0  0  0  0  0  0  0  0
   75.3422   40.1705   39.6121 C   0  0  0  0  0  0  0  0  0  0  0  0
   74.4888   41.1852   38.9906 C   0  0  0  0  0  0  0  0  0  0  0  0
   74.5459   42.3704   39.2871 O   0  0  0  0  0  0  0  0  0  0  0  0
   73.6502   40.5113   38.1188 N   0  0  0  0  0  0  0  0  0  0  0  0
   73.8286   39.1479   38.2346 C   0  0  0  0  0  0  0  0  0  0  0  0
   73.2366   38.2362   37.6751 O   0  0  0  0  0  0  0  0  0  0  0  0
   74.9153   38.9489   39.1892 C   0  0  0  0  0  0  0  0  0  0  0  0
   75.4924   37.7711   39.6251 C   0  0  0  0  0  0  0  0  0  0  0  0
   76.5462   37.8863   40.5213 C   0  0  0  0  0  0  0  0  0  0  0  0
   77.0012   39.1379   40.9344 C   0  0  0  0  0  0  0  0  0  0  0  0
   72.6228   41.0925   37.2415 C   0  0  1  0  0  0  0  0  0  0  0  0
   71.3243   41.3106   38.0101 C   0  0  0  0  0  0  0  0  0  0  0  0
   71.0124   40.6650   39.0001 O   0  0  0  0  0  0  0  0  0  0  0  0
   70.4564   42.2292   37.4661 N   0  0  0  0  0  0  0  0  0  0  0  0
   70.6521   43.0770   36.4078 C   0  0  0  0  0  0  0  0  0  0  0  0
   69.8221   43.9233   36.1131 O   0  0  0  0  0  0  0  0  0  0  0  0
   71.9334   42.8795   35.6369 C   0  0  0  0  0  0  0  0  0  0  0  0
   73.0531   42.3760   36.5351 C   0  0  0  0  0  0  0  0  0  0  0  0
   77.8158   41.6230   41.3014 H   0  0  0  0  0  0  0  0  0  0  0  0
   76.5312   42.3943   40.4270 H   0  0  0  0  0  0  0  0  0  0  0  0
   75.1402   36.8020   39.2837 H   0  0  0  0  0  0  0  0  0  0  0  0
   77.0261   36.9899   40.9021 H   0  0  0  0  0  0  0  0  0  0  0  0
   77.8251   39.1915   41.6393 H   0  0  0  0  0  0  0  0  0  0  0  0
   72.3890   40.3404   36.4788 H   0  0  0  0  0  0  0  0  0  0  0  0
   69.5825   42.3569   37.9551 H   0  0  0  0  0  0  0  0  0  0  0  0
   71.7395   42.1793   34.8174 H   0  0  0  0  0  0  0  0  0  0  0  0
   72.2168   43.8412   35.2043 H   0  0  0  0  0  0  0  0  0  0  0  0
   73.3044   43.1566   37.2580 H   0  0  0  0  0  0  0  0  0  0  0  0
   73.9560   42.1982   35.9420 H   0  0  0  0  0  0  0  0  0  0  0  0
  1  2  1  0  0  0  0
  1 21  1  0  0  0  0
  1 22  1  0  0  0  0
  2  3  1  0  0  0  0
  2 12  2  0  0  0  0
  3  9  2  0  0  0  0
  3  4  1  0  0  0  0
  4  5  2  0  0  0  0
  4  6  1  0  0  0  0
  6  7  1  0  0  0  0
 13  6  1  0  0  0  0
  7  8  2  0  0  0  0
  7  9  1  0  0  0  0
  9 10  1  0  0  0  0
 10 23  1  0  0  0  0
 10 11  2  0  0  0  0
 11 12  1  0  0  0  0
 11 24  1  0  0  0  0
 12 25  1  0  0  0  0
 13 26  1  0  0  0  0
 13 14  1  0  0  0  0
 13 20  1  0  0  0  0
 14 15  2  0  0  0  0
 14 16  1  0  0  0  0
 16 27  1  0  0  0  0
 16 17  1  0  0  0  0
 17 18  2  0  0  0  0
 17 19  1  0  0  0  0
 19 28  1  0  0  0  0
 19 29  1  0  0  0  0
 19 20  1  0  0  0  0
 20 30  1  0  0  0  0
 20 31  1  0  0  0  0
M  ZZC   1 n1
M  ZZC   2 c1
M  ZZC   3 c2
M  ZZC   4 c3
M  ZZC   5 o1
M  ZZC   6 n2
M  ZZC   7 c4
M  ZZC   8 o2
M  ZZC   9 c5
M  ZZC  10 c6
M  ZZC  11 c7
M  ZZC  12 c8
M  ZZC  13 c9
M  ZZC  14 c10
M  ZZC  15 o3
M  ZZC  16 n3
M  ZZC  17 c11
M  ZZC  18 o4
M  ZZC  19 c12
M  ZZC  20 c13
M  ZZC  21 h11
M  ZZC  22 h12
M  ZZC  23 h61
M  ZZC  24 h71
M  ZZC  25 h81
M  ZZC  26 h91
M  ZZC  27 h31
M  ZZC  28 h121
M  ZZC  29 h122
M  ZZC  30 h131
M  ZZC  31 h132
M  ZZM   1 40
M  ZZI   1 224
M  ZZM   2 37
M  ZZI   2 124
M  ZZM   3 37
M  ZZI   3 124
M  ZZM   4 3
M  ZZI   4 121
M  ZZM   5 7
M  ZZI   5 81
M  ZZM   6 10
M  ZZI   6 192
M  ZZM   7 3
M  ZZI   7 121
M  ZZM   8 7
M  ZZI   8 81
M  ZZM   9 37
M  ZZI   9 124
M  ZZM  10 37
M  ZZI  10 125
M  ZZM  11 37
M  ZZI  11 125
M  ZZM  12 37
M  ZZI  12 125
M  ZZM  13 1
M  ZZI  13 113
M  ZZM  14 3
M  ZZI  14 121
M  ZZM  15 7
M  ZZI  15 81
M  ZZM  16 10
M  ZZI  16 191
M  ZZM  17 3
M  ZZI  17 121
M  ZZM  18 7
M  ZZI  18 81
M  ZZM  19 1
M  ZZI  19 112
M  ZZM  20 1
M  ZZI  20 112
M  ZZM  21 28
M  ZZI  21 11
M  ZZM  22 28
M  ZZI  22 11
M  ZZM  23 5
M  ZZI  23 1
M  ZZM  24 5
M  ZZI  24 1
M  ZZM  25 5
M  ZZI  25 1
M  ZZM  26 5
M  ZZI  26 1
M  ZZM  27 28
M  ZZI  27 11
M  ZZM  28 5
M  ZZI  28 1
M  ZZM  29 5
M  ZZI  29 1
M  ZZM  30 5
M  ZZI  30 1
M  ZZM  31 5
M  ZZI  31 1
M  END
> <IX>
1

> <NAME>
Cereblon_5TRF_9.pdb

> <Score>
-19.690292

> <Natom>
31

> <Nflex>
1

> <Hbond>
-4.935967

> <Hphob>
-3.504277

> <VwInt>
-23.816076

> <Dsolv>
15.997628

> <SolEl>
8.401115

> <Eintl>
1.36448

> <RecConf>
ND

> <projPath>
Cereblon_maps/

> <NAME_>
Cereblon_5TRF_9.pdb

$$$$
