Cereblon_1EJ1_3.pdb
  MOLSOFT 04032206193D

 34 36  0  0  1  0  0  0  0  0999 V2000
   76.8075   37.9125   40.7945 C   0  0  0  0  0  0  0  0  0  0  0  0
   76.4435   39.0532   39.8552 C   0  0  2  0  0  0  0  0  0  0  0  0
   76.3507   40.3502   40.5679 C   0  0  0  0  0  0  0  0  0  0  0  0
   75.3763   41.1972   39.8478 C   0  0  0  0  0  0  0  0  0  0  0  0
   75.1384   42.3754   40.0565 O   0  0  0  0  0  0  0  0  0  0  0  0
   74.7830   40.3798   38.9125 N   0  0  0  0  0  0  0  0  0  0  0  0
   73.7106   40.7821   37.9951 C   0  0  2  0  0  0  0  0  0  0  0  0
   74.1059   42.0165   37.1808 C   0  0  0  0  0  0  0  0  0  0  0  0
   75.2634   42.3125   36.9177 O   0  0  0  0  0  0  0  0  0  0  0  0
   73.0601   42.7525   36.6745 N   0  0  0  0  0  0  0  0  0  0  0  0
   71.7105   42.5458   36.8283 C   0  0  0  0  0  0  0  0  0  0  0  0
   70.8817   43.2537   36.2760 O   0  0  0  0  0  0  0  0  0  0  0  0
   71.3141   41.3632   37.6813 C   0  0  0  0  0  0  0  0  0  0  0  0
   72.3830   41.0087   38.7044 C   0  0  0  0  0  0  0  0  0  0  0  0
   75.0875   38.9884   39.1735 C   0  0  0  0  0  0  0  0  0  0  0  0
   76.9883   40.6316   41.7143 C   0  0  0  0  0  0  0  0  0  0  0  0
   77.8085   39.5984   42.4210 C   0  0  0  0  0  0  0  0  0  0  0  0
   78.0334   38.3159   41.6132 C   0  0  0  0  0  0  0  0  0  0  0  0
   75.9736   37.6839   41.4622 H   0  0  0  0  0  0  0  0  0  0  0  0
   77.0143   37.0056   40.2174 H   0  0  0  0  0  0  0  0  0  0  0  0
   77.2253   39.1576   39.0989 H   0  0  0  0  0  0  0  0  0  0  0  0
   73.5932   39.9706   37.2676 H   0  0  0  0  0  0  0  0  0  0  0  0
   73.3162   43.5543   36.1150 H   0  0  0  0  0  0  0  0  0  0  0  0
   70.3811   41.6094   38.1963 H   0  0  0  0  0  0  0  0  0  0  0  0
   71.1192   40.5170   37.0143 H   0  0  0  0  0  0  0  0  0  0  0  0
   72.0883   40.1086   39.2535 H   0  0  0  0  0  0  0  0  0  0  0  0
   72.4797   41.8104   39.4437 H   0  0  0  0  0  0  0  0  0  0  0  0
   75.0945   38.4068   38.2478 H   0  0  0  0  0  0  0  0  0  0  0  0
   74.3106   38.5885   39.8366 H   0  0  0  0  0  0  0  0  0  0  0  0
   76.8866   41.5984   42.1912 H   0  0  0  0  0  0  0  0  0  0  0  0
   78.7722   40.0295   42.7007 H   0  0  0  0  0  0  0  0  0  0  0  0
   77.3065   39.3519   43.3602 H   0  0  0  0  0  0  0  0  0  0  0  0
   78.3146   37.5022   42.2890 H   0  0  0  0  0  0  0  0  0  0  0  0
   78.8839   38.4563   40.9363 H   0  0  0  0  0  0  0  0  0  0  0  0
  1 19  1  0  0  0  0
  1 20  1  0  0  0  0
  1 18  1  0  0  0  0
  2  1  1  0  0  0  0
  2  3  1  0  0  0  0
  2 21  1  0  0  0  0
  2 15  1  0  0  0  0
  3 16  2  0  0  0  0
  3  4  1  0  0  0  0
  4  6  1  0  0  0  0
  4  5  2  0  0  0  0
  6 15  1  0  0  0  0
  7  6  1  0  0  0  0
  7 22  1  0  0  0  0
  7  8  1  0  0  0  0
  7 14  1  0  0  0  0
  8  9  2  0  0  0  0
  8 10  1  0  0  0  0
 10 23  1  0  0  0  0
 10 11  1  0  0  0  0
 11 12  2  0  0  0  0
 11 13  1  0  0  0  0
 13 24  1  0  0  0  0
 13 25  1  0  0  0  0
 13 14  1  0  0  0  0
 14 26  1  0  0  0  0
 14 27  1  0  0  0  0
 15 28  1  0  0  0  0
 15 29  1  0  0  0  0
 16 17  1  0  0  0  0
 16 30  1  0  0  0  0
 17 18  1  0  0  0  0
 17 31  1  0  0  0  0
 17 32  1  0  0  0  0
 18 33  1  0  0  0  0
 18 34  1  0  0  0  0
M  ZZC   1 c1
M  ZZC   2 c2
M  ZZC   3 c3
M  ZZC   4 c4
M  ZZC   5 o1
M  ZZC   6 n1
M  ZZC   7 c5
M  ZZC   8 c6
M  ZZC   9 o2
M  ZZC  10 n2
M  ZZC  11 c7
M  ZZC  12 o3
M  ZZC  13 c8
M  ZZC  14 c9
M  ZZC  15 c10
M  ZZC  16 c11
M  ZZC  17 c12
M  ZZC  18 c13
M  ZZC  19 h11
M  ZZC  20 h12
M  ZZC  21 h21
M  ZZC  22 h51
M  ZZC  23 h01
M  ZZC  24 h81
M  ZZC  25 h82
M  ZZC  26 h91
M  ZZC  27 h92
M  ZZC  28 h101
M  ZZC  29 h102
M  ZZC  30 h111
M  ZZC  31 h121
M  ZZC  32 h122
M  ZZC  33 h131
M  ZZC  34 h132
M  ZZM   1 1
M  ZZI   1 112
M  ZZM   2 1
M  ZZI   2 113
M  ZZM   3 2
M  ZZI   3 120
M  ZZM   4 3
M  ZZI   4 121
M  ZZM   5 7
M  ZZI   5 81
M  ZZM   6 10
M  ZZI   6 192
M  ZZM   7 1
M  ZZI   7 113
M  ZZM   8 3
M  ZZI   8 121
M  ZZM   9 7
M  ZZI   9 81
M  ZZM  10 10
M  ZZI  10 191
M  ZZM  11 3
M  ZZI  11 121
M  ZZM  12 7
M  ZZI  12 81
M  ZZM  13 1
M  ZZI  13 112
M  ZZM  14 1
M  ZZI  14 112
M  ZZM  15 1
M  ZZI  15 112
M  ZZM  16 2
M  ZZI  16 120
M  ZZM  17 1
M  ZZI  17 112
M  ZZM  18 1
M  ZZI  18 112
M  ZZM  19 5
M  ZZI  19 1
M  ZZM  20 5
M  ZZI  20 1
M  ZZM  21 5
M  ZZI  21 1
M  ZZM  22 5
M  ZZI  22 1
M  ZZM  23 28
M  ZZI  23 11
M  ZZM  24 5
M  ZZI  24 1
M  ZZM  25 5
M  ZZI  25 1
M  ZZM  26 5
M  ZZI  26 1
M  ZZM  27 5
M  ZZI  27 1
M  ZZM  28 5
M  ZZI  28 1
M  ZZM  29 5
M  ZZI  29 1
M  ZZM  30 5
M  ZZI  30 1
M  ZZM  31 5
M  ZZI  31 1
M  ZZM  32 5
M  ZZI  32 1
M  ZZM  33 5
M  ZZI  33 1
M  ZZM  34 5
M  ZZI  34 1
M  END
> <IX>
1

> <NAME>
Cereblon_1EJ1_3.pdb

> <Score>
-9.96286

> <Natom>
34

> <Nflex>
1

> <Hbond>
-3.572292

> <Hphob>
-3.864567

> <VwInt>
-15.781236

> <Dsolv>
14.067192

> <SolEl>
7.892344

> <Eintl>
1.810321

> <RecConf>
ND

> <projPath>
Cereblon_maps/

> <NAME_>
Cereblon_1EJ1_3.pdb

$$$$
