Cereblon_5TRF_2.pdb
  MOLSOFT 04032206273D

 31 33  0  0  1  0  0  0  0  0999 V2000
   78.0641   40.6335   42.6491 N   0  0  0  0  0  0  0  0  0  0  0  0
   78.1188   41.7220   41.7635 C   0  0  0  0  0  0  0  0  0  0  0  0
   77.2932   41.8157   40.6519 C   0  0  0  0  0  0  0  0  0  0  0  0
   76.2249   40.9269   40.2007 C   0  0  0  0  0  0  0  0  0  0  0  0
   75.9755   39.8402   40.7033 O   0  0  0  0  0  0  0  0  0  0  0  0
   75.6043   41.5575   39.1382 N   0  0  0  0  0  0  0  0  0  0  0  0
   76.3315   42.6666   38.7559 C   0  0  0  0  0  0  0  0  0  0  0  0
   76.2285   43.3671   37.7601 O   0  0  0  0  0  0  0  0  0  0  0  0
   77.3685   42.8508   39.7709 C   0  0  0  0  0  0  0  0  0  0  0  0
   78.3098   43.8555   39.8993 C   0  0  0  0  0  0  0  0  0  0  0  0
   79.1769   43.7706   40.9809 C   0  0  0  0  0  0  0  0  0  0  0  0
   79.0790   42.7228   41.8981 C   0  0  0  0  0  0  0  0  0  0  0  0
   74.3553   41.0456   38.5452 C   0  0  1  0  0  0  0  0  0  0  0  0
   73.2206   41.3229   39.5224 C   0  0  0  0  0  0  0  0  0  0  0  0
   73.4016   41.6119   40.6928 O   0  0  0  0  0  0  0  0  0  0  0  0
   71.9491   41.1749   39.0290 N   0  0  0  0  0  0  0  0  0  0  0  0
   71.5669   40.9321   37.7353 C   0  0  0  0  0  0  0  0  0  0  0  0
   70.4038   40.6866   37.4545 O   0  0  0  0  0  0  0  0  0  0  0  0
   72.6796   40.9309   36.7075 C   0  0  0  0  0  0  0  0  0  0  0  0
   73.9201   41.6571   37.2130 C   0  0  0  0  0  0  0  0  0  0  0  0
   78.6383   40.6252   43.4910 H   0  0  0  0  0  0  0  0  0  0  0  0
   77.2687   39.9958   42.5906 H   0  0  0  0  0  0  0  0  0  0  0  0
   78.3681   44.6735   39.1898 H   0  0  0  0  0  0  0  0  0  0  0  0
   79.9345   44.5353   41.1209 H   0  0  0  0  0  0  0  0  0  0  0  0
   79.7685   42.6923   42.7359 H   0  0  0  0  0  0  0  0  0  0  0  0
   74.4524   39.9563   38.4664 H   0  0  0  0  0  0  0  0  0  0  0  0
   71.2004   41.2736   39.7023 H   0  0  0  0  0  0  0  0  0  0  0  0
   72.9150   39.8899   36.4617 H   0  0  0  0  0  0  0  0  0  0  0  0
   72.3133   41.4189   35.7985 H   0  0  0  0  0  0  0  0  0  0  0  0
   74.7114   41.5979   36.4644 H   0  0  0  0  0  0  0  0  0  0  0  0
   73.6904   42.7221   37.3359 H   0  0  0  0  0  0  0  0  0  0  0  0
  1  2  1  0  0  0  0
  1 21  1  0  0  0  0
  1 22  1  0  0  0  0
  2  3  1  0  0  0  0
  2 12  2  0  0  0  0
  3  9  2  0  0  0  0
  3  4  1  0  0  0  0
  4  5  2  0  0  0  0
  4  6  1  0  0  0  0
  6  7  1  0  0  0  0
 13  6  1  0  0  0  0
  7  8  2  0  0  0  0
  7  9  1  0  0  0  0
  9 10  1  0  0  0  0
 10 23  1  0  0  0  0
 10 11  2  0  0  0  0
 11 12  1  0  0  0  0
 11 24  1  0  0  0  0
 12 25  1  0  0  0  0
 13 26  1  0  0  0  0
 13 14  1  0  0  0  0
 13 20  1  0  0  0  0
 14 15  2  0  0  0  0
 14 16  1  0  0  0  0
 16 27  1  0  0  0  0
 16 17  1  0  0  0  0
 17 18  2  0  0  0  0
 17 19  1  0  0  0  0
 19 28  1  0  0  0  0
 19 29  1  0  0  0  0
 19 20  1  0  0  0  0
 20 30  1  0  0  0  0
 20 31  1  0  0  0  0
M  ZZC   1 n1
M  ZZC   2 c1
M  ZZC   3 c2
M  ZZC   4 c3
M  ZZC   5 o1
M  ZZC   6 n2
M  ZZC   7 c4
M  ZZC   8 o2
M  ZZC   9 c5
M  ZZC  10 c6
M  ZZC  11 c7
M  ZZC  12 c8
M  ZZC  13 c9
M  ZZC  14 c10
M  ZZC  15 o3
M  ZZC  16 n3
M  ZZC  17 c11
M  ZZC  18 o4
M  ZZC  19 c12
M  ZZC  20 c13
M  ZZC  21 h11
M  ZZC  22 h12
M  ZZC  23 h61
M  ZZC  24 h71
M  ZZC  25 h81
M  ZZC  26 h91
M  ZZC  27 h31
M  ZZC  28 h121
M  ZZC  29 h122
M  ZZC  30 h131
M  ZZC  31 h132
M  ZZM   1 40
M  ZZI   1 224
M  ZZM   2 37
M  ZZI   2 124
M  ZZM   3 37
M  ZZI   3 124
M  ZZM   4 3
M  ZZI   4 121
M  ZZM   5 7
M  ZZI   5 81
M  ZZM   6 10
M  ZZI   6 192
M  ZZM   7 3
M  ZZI   7 121
M  ZZM   8 7
M  ZZI   8 81
M  ZZM   9 37
M  ZZI   9 124
M  ZZM  10 37
M  ZZI  10 125
M  ZZM  11 37
M  ZZI  11 125
M  ZZM  12 37
M  ZZI  12 125
M  ZZM  13 1
M  ZZI  13 113
M  ZZM  14 3
M  ZZI  14 121
M  ZZM  15 7
M  ZZI  15 81
M  ZZM  16 10
M  ZZI  16 191
M  ZZM  17 3
M  ZZI  17 121
M  ZZM  18 7
M  ZZI  18 81
M  ZZM  19 1
M  ZZI  19 112
M  ZZM  20 1
M  ZZI  20 112
M  ZZM  21 28
M  ZZI  21 11
M  ZZM  22 28
M  ZZI  22 11
M  ZZM  23 5
M  ZZI  23 1
M  ZZM  24 5
M  ZZI  24 1
M  ZZM  25 5
M  ZZI  25 1
M  ZZM  26 5
M  ZZI  26 1
M  ZZM  27 28
M  ZZI  27 11
M  ZZM  28 5
M  ZZI  28 1
M  ZZM  29 5
M  ZZI  29 1
M  ZZM  30 5
M  ZZI  30 1
M  ZZM  31 5
M  ZZI  31 1
M  END
> <IX>
1

> <NAME>
Cereblon_5TRF_2.pdb

> <Score>
-14.863719

> <Natom>
31

> <Nflex>
1

> <Hbond>
-2.757688

> <Hphob>
-3.666644

> <VwInt>
-26.998103

> <Dsolv>
17.183462

> <SolEl>
6.87904

> <Eintl>
5.900373

> <RecConf>
ND

> <projPath>
Cereblon_maps/

> <NAME_>
Cereblon_5TRF_2.pdb

$$$$
