Cereblon_6Y7K_2.pdb
  MOLSOFT 04032206303D

 29 31  0  0  1  0  0  0  0  0999 V2000
   81.5901   53.9069   19.7911 C   0  0  0  0  0  0  0  0  0  0  0  0
   80.9481   54.8858   20.5286 C   0  0  0  0  0  0  0  0  0  0  0  0
   79.7734   54.7903   21.3905 C   0  0  0  0  0  0  0  0  0  0  0  0
   79.1649   53.7531   21.6115 O   0  0  0  0  0  0  0  0  0  0  0  0
   79.5619   56.0570   21.8957 N   0  0  0  0  0  0  0  0  0  0  0  0
   80.5054   56.9450   21.4269 C   0  0  0  0  0  0  0  0  0  0  0  0
   80.6437   58.1379   21.6553 O   0  0  0  0  0  0  0  0  0  0  0  0
   81.3822   56.1766   20.5507 C   0  0  0  0  0  0  0  0  0  0  0  0
   82.4872   56.5940   19.8368 C   0  0  0  0  0  0  0  0  0  0  0  0
   83.1426   55.6287   19.0857 C   0  0  0  0  0  0  0  0  0  0  0  0
   82.7054   54.3034   19.0626 C   0  0  0  0  0  0  0  0  0  0  0  0
   78.4710   56.3796   22.8138 C   0  0  2  0  0  0  0  0  0  0  0  0
   77.3548   57.1207   22.1056 C   0  0  0  0  0  0  0  0  0  0  0  0
   77.1938   57.1067   20.8944 O   0  0  0  0  0  0  0  0  0  0  0  0
   76.4671   57.7485   22.9473 N   0  0  0  0  0  0  0  0  0  0  0  0
   76.5056   57.8511   24.3173 C   0  0  0  0  0  0  0  0  0  0  0  0
   75.5898   58.3512   24.9501 O   0  0  0  0  0  0  0  0  0  0  0  0
   77.7214   57.2658   24.9965 C   0  0  0  0  0  0  0  0  0  0  0  0
   78.8948   57.1827   24.0397 C   0  0  0  0  0  0  0  0  0  0  0  0
   81.2370   52.8799   19.7742 H   0  0  0  0  0  0  0  0  0  0  0  0
   82.8300   57.6242   19.8627 H   0  0  0  0  0  0  0  0  0  0  0  0
   84.0126   55.9197   18.5091 H   0  0  0  0  0  0  0  0  0  0  0  0
   83.2422   53.5721   18.4655 H   0  0  0  0  0  0  0  0  0  0  0  0
   78.0336   55.4313   23.1315 H   0  0  0  0  0  0  0  0  0  0  0  0
   75.6852   58.2033   22.4958 H   0  0  0  0  0  0  0  0  0  0  0  0
   77.9833   57.8918   25.8554 H   0  0  0  0  0  0  0  0  0  0  0  0
   77.4617   56.2714   25.3672 H   0  0  0  0  0  0  0  0  0  0  0  0
   79.2067   58.1948   23.7598 H   0  0  0  0  0  0  0  0  0  0  0  0
   79.7476   56.7156   24.5389 H   0  0  0  0  0  0  0  0  0  0  0  0
  1 20  1  0  0  0  0
  1  2  1  0  0  0  0
  1 11  2  0  0  0  0
  2  3  1  0  0  0  0
  2  8  2  0  0  0  0
  3  4  2  0  0  0  0
  3  5  1  0  0  0  0
  5  6  1  0  0  0  0
 12  5  1  0  0  0  0
  6  7  2  0  0  0  0
  6  8  1  0  0  0  0
  8  9  1  0  0  0  0
  9 21  1  0  0  0  0
  9 10  2  0  0  0  0
 10 22  1  0  0  0  0
 10 11  1  0  0  0  0
 11 23  1  0  0  0  0
 12 24  1  0  0  0  0
 12 13  1  0  0  0  0
 12 19  1  0  0  0  0
 13 14  2  0  0  0  0
 13 15  1  0  0  0  0
 15 25  1  0  0  0  0
 15 16  1  0  0  0  0
 16 17  2  0  0  0  0
 16 18  1  0  0  0  0
 18 26  1  0  0  0  0
 18 27  1  0  0  0  0
 18 19  1  0  0  0  0
 19 28  1  0  0  0  0
 19 29  1  0  0  0  0
M  ZZC   1 c1
M  ZZC   2 c2
M  ZZC   3 c3
M  ZZC   4 o1
M  ZZC   5 n1
M  ZZC   6 c4
M  ZZC   7 o2
M  ZZC   8 c5
M  ZZC   9 c6
M  ZZC  10 c7
M  ZZC  11 c8
M  ZZC  12 c9
M  ZZC  13 c10
M  ZZC  14 o3
M  ZZC  15 n2
M  ZZC  16 c11
M  ZZC  17 o4
M  ZZC  18 c12
M  ZZC  19 c13
M  ZZC  20 h11
M  ZZC  21 h61
M  ZZC  22 h71
M  ZZC  23 h81
M  ZZC  24 h91
M  ZZC  25 h21
M  ZZC  26 h121
M  ZZC  27 h122
M  ZZC  28 h131
M  ZZC  29 h132
M  ZZM   1 37
M  ZZI   1 125
M  ZZM   2 37
M  ZZI   2 124
M  ZZM   3 3
M  ZZI   3 121
M  ZZM   4 7
M  ZZI   4 81
M  ZZM   5 10
M  ZZI   5 192
M  ZZM   6 3
M  ZZI   6 121
M  ZZM   7 7
M  ZZI   7 81
M  ZZM   8 37
M  ZZI   8 124
M  ZZM   9 37
M  ZZI   9 125
M  ZZM  10 37
M  ZZI  10 125
M  ZZM  11 37
M  ZZI  11 125
M  ZZM  12 1
M  ZZI  12 113
M  ZZM  13 3
M  ZZI  13 121
M  ZZM  14 7
M  ZZI  14 81
M  ZZM  15 10
M  ZZI  15 191
M  ZZM  16 3
M  ZZI  16 121
M  ZZM  17 7
M  ZZI  17 81
M  ZZM  18 1
M  ZZI  18 112
M  ZZM  19 1
M  ZZI  19 112
M  ZZM  20 5
M  ZZI  20 1
M  ZZM  21 5
M  ZZI  21 1
M  ZZM  22 5
M  ZZI  22 1
M  ZZM  23 5
M  ZZI  23 1
M  ZZM  24 5
M  ZZI  24 1
M  ZZM  25 28
M  ZZI  25 11
M  ZZM  26 5
M  ZZI  26 1
M  ZZM  27 5
M  ZZI  27 1
M  ZZM  28 5
M  ZZI  28 1
M  ZZM  29 5
M  ZZI  29 1
M  END
> <IX>
1

> <NAME>
Cereblon_6Y7K_2.pdb

> <Score>
-14.617986

> <Natom>
29

> <Nflex>
1

> <Hbond>
-0.485698

> <Hphob>
-3.339481

> <VwInt>
-22.865505

> <Dsolv>
11.344158

> <SolEl>
3.215451

> <Eintl>
0.805786

> <RecConf>
ND

> <projPath>
Cereblon_maps/

> <NAME_>
Cereblon_6Y7K_2.pdb

$$$$
