Cereblon_6Z45_1.pdb
  MOLSOFT 04032206303D

 29 31  0  0  1  0  0  0  0  0999 V2000
   79.0048   42.4946   42.6712 C   0  0  0  0  0  0  0  0  0  0  0  0
   78.1854   42.1991   41.5964 C   0  0  0  0  0  0  0  0  0  0  0  0
   77.2686   41.0802   41.4116 C   0  0  0  0  0  0  0  0  0  0  0  0
   77.0897   40.2192   42.2593 O   0  0  0  0  0  0  0  0  0  0  0  0
   76.7270   41.2216   40.1470 N   0  0  0  0  0  0  0  0  0  0  0  0
   77.2229   42.3475   39.5226 C   0  0  0  0  0  0  0  0  0  0  0  0
   76.9870   42.7663   38.3967 O   0  0  0  0  0  0  0  0  0  0  0  0
   78.1580   42.9611   40.4668 C   0  0  0  0  0  0  0  0  0  0  0  0
   78.9574   44.0775   40.3229 C   0  0  0  0  0  0  0  0  0  0  0  0
   79.7995   44.3886   41.3845 C   0  0  0  0  0  0  0  0  0  0  0  0
   79.8239   43.6108   42.5430 C   0  0  0  0  0  0  0  0  0  0  0  0
   75.7184   40.3663   39.5152 C   0  0  2  0  0  0  0  0  0  0  0  0
   74.3403   40.9336   39.8053 C   0  0  0  0  0  0  0  0  0  0  0  0
   74.1508   42.1196   40.0189 O   0  0  0  0  0  0  0  0  0  0  0  0
   73.2903   40.0512   39.7318 N   0  0  0  0  0  0  0  0  0  0  0  0
   73.3288   38.7064   39.4552 C   0  0  0  0  0  0  0  0  0  0  0  0
   72.3132   38.0330   39.3936 O   0  0  0  0  0  0  0  0  0  0  0  0
   74.6927   38.1258   39.1782 C   0  0  0  0  0  0  0  0  0  0  0  0
   75.7742   38.8955   39.9158 C   0  0  0  0  0  0  0  0  0  0  0  0
   79.0174   41.8804   43.5670 H   0  0  0  0  0  0  0  0  0  0  0  0
   78.9275   44.6772   39.4211 H   0  0  0  0  0  0  0  0  0  0  0  0
   80.4483   45.2541   41.3136 H   0  0  0  0  0  0  0  0  0  0  0  0
   80.4915   43.8794   43.3564 H   0  0  0  0  0  0  0  0  0  0  0  0
   75.8555   40.4556   38.4353 H   0  0  0  0  0  0  0  0  0  0  0  0
   72.3721   40.4451   39.8955 H   0  0  0  0  0  0  0  0  0  0  0  0
   74.6997   37.0798   39.5013 H   0  0  0  0  0  0  0  0  0  0  0  0
   74.8543   38.1482   38.0960 H   0  0  0  0  0  0  0  0  0  0  0  0
   75.6117   38.7756   40.9908 H   0  0  0  0  0  0  0  0  0  0  0  0
   76.7599   38.4750   39.6916 H   0  0  0  0  0  0  0  0  0  0  0  0
  1 20  1  0  0  0  0
  1  2  1  0  0  0  0
  1 11  2  0  0  0  0
  2  3  1  0  0  0  0
  2  8  2  0  0  0  0
  3  4  2  0  0  0  0
  3  5  1  0  0  0  0
  5  6  1  0  0  0  0
 12  5  1  0  0  0  0
  6  7  2  0  0  0  0
  6  8  1  0  0  0  0
  8  9  1  0  0  0  0
  9 21  1  0  0  0  0
  9 10  2  0  0  0  0
 10 22  1  0  0  0  0
 10 11  1  0  0  0  0
 11 23  1  0  0  0  0
 12 24  1  0  0  0  0
 12 13  1  0  0  0  0
 12 19  1  0  0  0  0
 13 14  2  0  0  0  0
 13 15  1  0  0  0  0
 15 25  1  0  0  0  0
 15 16  1  0  0  0  0
 16 17  2  0  0  0  0
 16 18  1  0  0  0  0
 18 26  1  0  0  0  0
 18 27  1  0  0  0  0
 18 19  1  0  0  0  0
 19 28  1  0  0  0  0
 19 29  1  0  0  0  0
M  ZZC   1 c1
M  ZZC   2 c2
M  ZZC   3 c3
M  ZZC   4 o1
M  ZZC   5 n1
M  ZZC   6 c4
M  ZZC   7 o2
M  ZZC   8 c5
M  ZZC   9 c6
M  ZZC  10 c7
M  ZZC  11 c8
M  ZZC  12 c9
M  ZZC  13 c10
M  ZZC  14 o3
M  ZZC  15 n2
M  ZZC  16 c11
M  ZZC  17 o4
M  ZZC  18 c12
M  ZZC  19 c13
M  ZZC  20 h11
M  ZZC  21 h61
M  ZZC  22 h71
M  ZZC  23 h81
M  ZZC  24 h91
M  ZZC  25 h21
M  ZZC  26 h121
M  ZZC  27 h122
M  ZZC  28 h131
M  ZZC  29 h132
M  ZZM   1 37
M  ZZI   1 125
M  ZZM   2 37
M  ZZI   2 124
M  ZZM   3 3
M  ZZI   3 121
M  ZZM   4 7
M  ZZI   4 81
M  ZZM   5 10
M  ZZI   5 192
M  ZZM   6 3
M  ZZI   6 121
M  ZZM   7 7
M  ZZI   7 81
M  ZZM   8 37
M  ZZI   8 124
M  ZZM   9 37
M  ZZI   9 125
M  ZZM  10 37
M  ZZI  10 125
M  ZZM  11 37
M  ZZI  11 125
M  ZZM  12 1
M  ZZI  12 113
M  ZZM  13 3
M  ZZI  13 121
M  ZZM  14 7
M  ZZI  14 81
M  ZZM  15 10
M  ZZI  15 191
M  ZZM  16 3
M  ZZI  16 121
M  ZZM  17 7
M  ZZI  17 81
M  ZZM  18 1
M  ZZI  18 112
M  ZZM  19 1
M  ZZI  19 112
M  ZZM  20 5
M  ZZI  20 1
M  ZZM  21 5
M  ZZI  21 1
M  ZZM  22 5
M  ZZI  22 1
M  ZZM  23 5
M  ZZI  23 1
M  ZZM  24 5
M  ZZI  24 1
M  ZZM  25 28
M  ZZI  25 11
M  ZZM  26 5
M  ZZI  26 1
M  ZZM  27 5
M  ZZI  27 1
M  ZZM  28 5
M  ZZI  28 1
M  ZZM  29 5
M  ZZI  29 1
M  END
> <IX>
1

> <NAME>
Cereblon_6Z45_1.pdb

> <Score>
-19.336565

> <Natom>
29

> <Nflex>
1

> <Hbond>
-3.365724

> <Hphob>
-3.531833

> <VwInt>
-22.689128

> <Dsolv>
12.032155

> <SolEl>
5.655378

> <Eintl>
1.462512

> <RecConf>
ND

> <projPath>
Cereblon_maps/

> <NAME_>
Cereblon_6Z45_1.pdb

$$$$
