Cereblon_4QNQ_52.pdb
  MOLSOFT 04032206243D

 31 33  0  0  1  0  0  0  0  0999 V2000
   77.9933   40.6342   42.7177 N   0  0  0  0  0  0  0  0  0  0  0  0
   78.1426   41.6614   41.7705 C   0  0  0  0  0  0  0  0  0  0  0  0
   77.3011   41.7871   40.6741 C   0  0  0  0  0  0  0  0  0  0  0  0
   76.2287   40.9086   40.2137 C   0  0  0  0  0  0  0  0  0  0  0  0
   75.9831   39.8133   40.6995 O   0  0  0  0  0  0  0  0  0  0  0  0
   75.6116   41.5524   39.1572 N   0  0  0  0  0  0  0  0  0  0  0  0
   76.3441   42.6622   38.7868 C   0  0  0  0  0  0  0  0  0  0  0  0
   76.2452   43.3728   37.7979 O   0  0  0  0  0  0  0  0  0  0  0  0
   77.3818   42.8312   39.8040 C   0  0  0  0  0  0  0  0  0  0  0  0
   78.3241   43.8330   39.9473 C   0  0  0  0  0  0  0  0  0  0  0  0
   79.1735   43.7446   41.0430 C   0  0  0  0  0  0  0  0  0  0  0  0
   79.0658   42.6896   41.9513 C   0  0  0  0  0  0  0  0  0  0  0  0
   74.3646   41.0484   38.5536 C   0  0  1  0  0  0  0  0  0  0  0  0
   73.2247   41.3221   39.5253 C   0  0  0  0  0  0  0  0  0  0  0  0
   73.3990   41.6048   40.6982 O   0  0  0  0  0  0  0  0  0  0  0  0
   71.9563   41.1780   39.0231 N   0  0  0  0  0  0  0  0  0  0  0  0
   71.5822   40.9435   37.7255 C   0  0  0  0  0  0  0  0  0  0  0  0
   70.4210   40.6991   37.4358 O   0  0  0  0  0  0  0  0  0  0  0  0
   72.7011   40.9492   36.7043 C   0  0  0  0  0  0  0  0  0  0  0  0
   73.9393   41.6698   37.2230 C   0  0  0  0  0  0  0  0  0  0  0  0
   78.7738   40.4213   43.3373 H   0  0  0  0  0  0  0  0  0  0  0  0
   77.3612   39.8679   42.4825 H   0  0  0  0  0  0  0  0  0  0  0  0
   78.3867   44.6590   39.2473 H   0  0  0  0  0  0  0  0  0  0  0  0
   79.9154   44.5196   41.2088 H   0  0  0  0  0  0  0  0  0  0  0  0
   79.7208   42.6724   42.8168 H   0  0  0  0  0  0  0  0  0  0  0  0
   74.4591   39.9594   38.4676 H   0  0  0  0  0  0  0  0  0  0  0  0
   71.2035   41.2731   39.6922 H   0  0  0  0  0  0  0  0  0  0  0  0
   72.9367   39.9100   36.4517 H   0  0  0  0  0  0  0  0  0  0  0  0
   72.3407   41.4449   35.7970 H   0  0  0  0  0  0  0  0  0  0  0  0
   74.7358   41.6144   36.4797 H   0  0  0  0  0  0  0  0  0  0  0  0
   73.7101   42.7342   37.3518 H   0  0  0  0  0  0  0  0  0  0  0  0
  1  2  1  0  0  0  0
  1 21  1  0  0  0  0
  1 22  1  0  0  0  0
  2  3  1  0  0  0  0
  2 12  2  0  0  0  0
  3  9  2  0  0  0  0
  3  4  1  0  0  0  0
  4  5  2  0  0  0  0
  4  6  1  0  0  0  0
  6  7  1  0  0  0  0
 13  6  1  0  0  0  0
  7  8  2  0  0  0  0
  7  9  1  0  0  0  0
  9 10  1  0  0  0  0
 10 23  1  0  0  0  0
 10 11  2  0  0  0  0
 11 12  1  0  0  0  0
 11 24  1  0  0  0  0
 12 25  1  0  0  0  0
 13 26  1  0  0  0  0
 13 14  1  0  0  0  0
 13 20  1  0  0  0  0
 14 15  2  0  0  0  0
 14 16  1  0  0  0  0
 16 27  1  0  0  0  0
 16 17  1  0  0  0  0
 17 18  2  0  0  0  0
 17 19  1  0  0  0  0
 19 28  1  0  0  0  0
 19 29  1  0  0  0  0
 19 20  1  0  0  0  0
 20 30  1  0  0  0  0
 20 31  1  0  0  0  0
M  ZZC   1 n1
M  ZZC   2 c1
M  ZZC   3 c2
M  ZZC   4 c3
M  ZZC   5 o1
M  ZZC   6 n2
M  ZZC   7 c4
M  ZZC   8 o2
M  ZZC   9 c5
M  ZZC  10 c6
M  ZZC  11 c7
M  ZZC  12 c8
M  ZZC  13 c9
M  ZZC  14 c10
M  ZZC  15 o3
M  ZZC  16 n3
M  ZZC  17 c11
M  ZZC  18 o4
M  ZZC  19 c12
M  ZZC  20 c13
M  ZZC  21 h11
M  ZZC  22 h12
M  ZZC  23 h61
M  ZZC  24 h71
M  ZZC  25 h81
M  ZZC  26 h91
M  ZZC  27 h31
M  ZZC  28 h121
M  ZZC  29 h122
M  ZZC  30 h131
M  ZZC  31 h132
M  ZZM   1 40
M  ZZI   1 224
M  ZZM   2 37
M  ZZI   2 124
M  ZZM   3 37
M  ZZI   3 124
M  ZZM   4 3
M  ZZI   4 121
M  ZZM   5 7
M  ZZI   5 81
M  ZZM   6 10
M  ZZI   6 192
M  ZZM   7 3
M  ZZI   7 121
M  ZZM   8 7
M  ZZI   8 81
M  ZZM   9 37
M  ZZI   9 124
M  ZZM  10 37
M  ZZI  10 125
M  ZZM  11 37
M  ZZI  11 125
M  ZZM  12 37
M  ZZI  12 125
M  ZZM  13 1
M  ZZI  13 113
M  ZZM  14 3
M  ZZI  14 121
M  ZZM  15 7
M  ZZI  15 81
M  ZZM  16 10
M  ZZI  16 191
M  ZZM  17 3
M  ZZI  17 121
M  ZZM  18 7
M  ZZI  18 81
M  ZZM  19 1
M  ZZI  19 112
M  ZZM  20 1
M  ZZI  20 112
M  ZZM  21 28
M  ZZI  21 11
M  ZZM  22 28
M  ZZI  22 11
M  ZZM  23 5
M  ZZI  23 1
M  ZZM  24 5
M  ZZI  24 1
M  ZZM  25 5
M  ZZI  25 1
M  ZZM  26 5
M  ZZI  26 1
M  ZZM  27 28
M  ZZI  27 11
M  ZZM  28 5
M  ZZI  28 1
M  ZZM  29 5
M  ZZI  29 1
M  ZZM  30 5
M  ZZI  30 1
M  ZZM  31 5
M  ZZI  31 1
M  END
> <IX>
1

> <NAME>
Cereblon_4QNQ_52.pdb

> <Score>
-15.052334

> <Natom>
31

> <Nflex>
1

> <Hbond>
-2.89197

> <Hphob>
-3.65703

> <VwInt>
-26.983722

> <Dsolv>
17.260496

> <SolEl>
7.099712

> <Eintl>
5.778502

> <RecConf>
ND

> <projPath>
Cereblon_maps/

> <NAME_>
Cereblon_4QNQ_52.pdb

$$$$
