Cereblon_5TRF_1.pdb
  MOLSOFT 04032206273D

 31 33  0  0  1  0  0  0  0  0999 V2000
   69.8652   40.5223   38.0938 N   0  0  0  0  0  0  0  0  0  0  0  0
   70.7491   41.3718   37.4066 C   0  0  0  0  0  0  0  0  0  0  0  0
   72.1205   41.3565   37.6277 C   0  0  0  0  0  0  0  0  0  0  0  0
   72.9188   40.5440   38.5493 C   0  0  0  0  0  0  0  0  0  0  0  0
   72.4364   39.7501   39.3445 O   0  0  0  0  0  0  0  0  0  0  0  0
   74.2407   40.8863   38.3299 N   0  0  0  0  0  0  0  0  0  0  0  0
   74.3352   41.8887   37.3867 C   0  0  0  0  0  0  0  0  0  0  0  0
   75.3353   42.4450   36.9532 O   0  0  0  0  0  0  0  0  0  0  0  0
   72.9695   42.1872   36.9614 C   0  0  0  0  0  0  0  0  0  0  0  0
   72.5111   43.1432   36.0765 C   0  0  0  0  0  0  0  0  0  0  0  0
   71.1412   43.2234   35.8762 C   0  0  0  0  0  0  0  0  0  0  0  0
   70.2764   42.3540   36.5374 C   0  0  0  0  0  0  0  0  0  0  0  0
   75.4231   40.3881   39.0507 C   0  0  1  0  0  0  0  0  0  0  0  0
   75.7144   41.3085   40.2155 C   0  0  0  0  0  0  0  0  0  0  0  0
   75.2755   42.4457   40.2574 O   0  0  0  0  0  0  0  0  0  0  0  0
   76.5610   40.8063   41.1774 N   0  0  0  0  0  0  0  0  0  0  0  0
   77.0732   39.5354   41.2742 C   0  0  0  0  0  0  0  0  0  0  0  0
   77.8517   39.2194   42.1589 O   0  0  0  0  0  0  0  0  0  0  0  0
   76.6546   38.5616   40.1996 C   0  0  0  0  0  0  0  0  0  0  0  0
   75.3290   38.9570   39.5674 C   0  0  0  0  0  0  0  0  0  0  0  0
   68.9140   40.4093   37.7331 H   0  0  0  0  0  0  0  0  0  0  0  0
   70.2706   39.7819   38.6723 H   0  0  0  0  0  0  0  0  0  0  0  0
   73.1871   43.8257   35.5846 H   0  0  0  0  0  0  0  0  0  0  0  0
   70.7404   43.9771   35.2043 H   0  0  0  0  0  0  0  0  0  0  0  0
   69.2091   42.4575   36.3728 H   0  0  0  0  0  0  0  0  0  0  0  0
   76.2866   40.4889   38.3871 H   0  0  0  0  0  0  0  0  0  0  0  0
   76.8331   41.4434   41.9153 H   0  0  0  0  0  0  0  0  0  0  0  0
   77.4550   38.5252   39.4551 H   0  0  0  0  0  0  0  0  0  0  0  0
   76.5659   37.5668   40.6474 H   0  0  0  0  0  0  0  0  0  0  0  0
   75.0752   38.2692   38.7548 H   0  0  0  0  0  0  0  0  0  0  0  0
   74.5402   38.8673   40.3215 H   0  0  0  0  0  0  0  0  0  0  0  0
  1  2  1  0  0  0  0
  1 21  1  0  0  0  0
  1 22  1  0  0  0  0
  2  3  1  0  0  0  0
  2 12  2  0  0  0  0
  3  9  2  0  0  0  0
  3  4  1  0  0  0  0
  4  5  2  0  0  0  0
  4  6  1  0  0  0  0
  6  7  1  0  0  0  0
 13  6  1  0  0  0  0
  7  8  2  0  0  0  0
  7  9  1  0  0  0  0
  9 10  1  0  0  0  0
 10 23  1  0  0  0  0
 10 11  2  0  0  0  0
 11 12  1  0  0  0  0
 11 24  1  0  0  0  0
 12 25  1  0  0  0  0
 13 26  1  0  0  0  0
 13 14  1  0  0  0  0
 13 20  1  0  0  0  0
 14 15  2  0  0  0  0
 14 16  1  0  0  0  0
 16 27  1  0  0  0  0
 16 17  1  0  0  0  0
 17 18  2  0  0  0  0
 17 19  1  0  0  0  0
 19 28  1  0  0  0  0
 19 29  1  0  0  0  0
 19 20  1  0  0  0  0
 20 30  1  0  0  0  0
 20 31  1  0  0  0  0
M  ZZC   1 n1
M  ZZC   2 c1
M  ZZC   3 c2
M  ZZC   4 c3
M  ZZC   5 o1
M  ZZC   6 n2
M  ZZC   7 c4
M  ZZC   8 o2
M  ZZC   9 c5
M  ZZC  10 c6
M  ZZC  11 c7
M  ZZC  12 c8
M  ZZC  13 c9
M  ZZC  14 c10
M  ZZC  15 o3
M  ZZC  16 n3
M  ZZC  17 c11
M  ZZC  18 o4
M  ZZC  19 c12
M  ZZC  20 c13
M  ZZC  21 h11
M  ZZC  22 h12
M  ZZC  23 h61
M  ZZC  24 h71
M  ZZC  25 h81
M  ZZC  26 h91
M  ZZC  27 h31
M  ZZC  28 h121
M  ZZC  29 h122
M  ZZC  30 h131
M  ZZC  31 h132
M  ZZM   1 40
M  ZZI   1 224
M  ZZM   2 37
M  ZZI   2 124
M  ZZM   3 37
M  ZZI   3 124
M  ZZM   4 3
M  ZZI   4 121
M  ZZM   5 7
M  ZZI   5 81
M  ZZM   6 10
M  ZZI   6 192
M  ZZM   7 3
M  ZZI   7 121
M  ZZM   8 7
M  ZZI   8 81
M  ZZM   9 37
M  ZZI   9 124
M  ZZM  10 37
M  ZZI  10 125
M  ZZM  11 37
M  ZZI  11 125
M  ZZM  12 37
M  ZZI  12 125
M  ZZM  13 1
M  ZZI  13 113
M  ZZM  14 3
M  ZZI  14 121
M  ZZM  15 7
M  ZZI  15 81
M  ZZM  16 10
M  ZZI  16 191
M  ZZM  17 3
M  ZZI  17 121
M  ZZM  18 7
M  ZZI  18 81
M  ZZM  19 1
M  ZZI  19 112
M  ZZM  20 1
M  ZZI  20 112
M  ZZM  21 28
M  ZZI  21 11
M  ZZM  22 28
M  ZZI  22 11
M  ZZM  23 5
M  ZZI  23 1
M  ZZM  24 5
M  ZZI  24 1
M  ZZM  25 5
M  ZZI  25 1
M  ZZM  26 5
M  ZZI  26 1
M  ZZM  27 28
M  ZZI  27 11
M  ZZM  28 5
M  ZZI  28 1
M  ZZM  29 5
M  ZZI  29 1
M  ZZM  30 5
M  ZZI  30 1
M  ZZM  31 5
M  ZZI  31 1
M  END
> <IX>
1

> <NAME>
Cereblon_5TRF_1.pdb

> <Score>
-5.872761

> <Natom>
31

> <Nflex>
1

> <Hbond>
-3.732684

> <Hphob>
-3.553729

> <VwInt>
-15.200279

> <Dsolv>
15.556243

> <SolEl>
11.463354

> <Eintl>
2.198683

> <RecConf>
ND

> <projPath>
Cereblon_maps/

> <NAME_>
Cereblon_5TRF_1.pdb

$$$$
