Cereblon_3MXF_41.pdb
  MOLSOFT 04032206223D

 29 31  0  0  1  0  0  0  0  0999 V2000
   76.3098   40.4907   40.6503 C   0  0  0  0  0  0  0  0  0  0  0  0
   75.3204   40.2825   39.7068 C   0  0  0  0  0  0  0  0  0  0  0  0
   74.4501   41.2473   39.0414 C   0  0  0  0  0  0  0  0  0  0  0  0
   74.4418   42.4323   39.3368 O   0  0  0  0  0  0  0  0  0  0  0  0
   73.6870   40.5321   38.1360 N   0  0  0  0  0  0  0  0  0  0  0  0
   73.9512   39.1811   38.2447 C   0  0  0  0  0  0  0  0  0  0  0  0
   73.4447   38.2394   37.6523 O   0  0  0  0  0  0  0  0  0  0  0  0
   75.0086   39.0422   39.2447 C   0  0  0  0  0  0  0  0  0  0  0  0
   75.6541   37.9077   39.7017 C   0  0  0  0  0  0  0  0  0  0  0  0
   76.6515   38.0921   40.6533 C   0  0  0  0  0  0  0  0  0  0  0  0
   76.9754   39.3658   41.1213 C   0  0  0  0  0  0  0  0  0  0  0  0
   72.6563   41.0700   37.2354 C   0  0  1  0  0  0  0  0  0  0  0  0
   71.3495   41.2751   37.9953 C   0  0  0  0  0  0  0  0  0  0  0  0
   71.0363   40.6201   38.9787 O   0  0  0  0  0  0  0  0  0  0  0  0
   70.4797   42.1959   37.4569 N   0  0  0  0  0  0  0  0  0  0  0  0
   70.6708   43.0435   36.3976 C   0  0  0  0  0  0  0  0  0  0  0  0
   69.8473   43.8997   36.1131 O   0  0  0  0  0  0  0  0  0  0  0  0
   71.9400   42.8296   35.6121 C   0  0  0  0  0  0  0  0  0  0  0  0
   73.0689   42.3496   36.5108 C   0  0  0  0  0  0  0  0  0  0  0  0
   76.5645   41.4854   41.0025 H   0  0  0  0  0  0  0  0  0  0  0  0
   75.4007   36.9194   39.3296 H   0  0  0  0  0  0  0  0  0  0  0  0
   77.1896   37.2308   41.0369 H   0  0  0  0  0  0  0  0  0  0  0  0
   77.7593   39.4819   41.8639 H   0  0  0  0  0  0  0  0  0  0  0  0
   72.4448   40.2987   36.4856 H   0  0  0  0  0  0  0  0  0  0  0  0
   69.6101   42.3263   37.9527 H   0  0  0  0  0  0  0  0  0  0  0  0
   71.7360   42.1095   34.8124 H   0  0  0  0  0  0  0  0  0  0  0  0
   72.2162   43.7807   35.1527 H   0  0  0  0  0  0  0  0  0  0  0  0
   73.9708   42.1736   35.9160 H   0  0  0  0  0  0  0  0  0  0  0  0
   73.3151   43.1429   37.2218 H   0  0  0  0  0  0  0  0  0  0  0  0
  1 20  1  0  0  0  0
  1  2  1  0  0  0  0
  1 11  2  0  0  0  0
  2  3  1  0  0  0  0
  2  8  2  0  0  0  0
  3  4  2  0  0  0  0
  3  5  1  0  0  0  0
  5  6  1  0  0  0  0
 12  5  1  0  0  0  0
  6  7  2  0  0  0  0
  6  8  1  0  0  0  0
  8  9  1  0  0  0  0
  9 21  1  0  0  0  0
  9 10  2  0  0  0  0
 10 22  1  0  0  0  0
 10 11  1  0  0  0  0
 11 23  1  0  0  0  0
 12 24  1  0  0  0  0
 12 13  1  0  0  0  0
 12 19  1  0  0  0  0
 13 14  2  0  0  0  0
 13 15  1  0  0  0  0
 15 25  1  0  0  0  0
 15 16  1  0  0  0  0
 16 17  2  0  0  0  0
 16 18  1  0  0  0  0
 18 26  1  0  0  0  0
 18 27  1  0  0  0  0
 18 19  1  0  0  0  0
 19 28  1  0  0  0  0
 19 29  1  0  0  0  0
M  ZZC   1 c1
M  ZZC   2 c2
M  ZZC   3 c3
M  ZZC   4 o1
M  ZZC   5 n1
M  ZZC   6 c4
M  ZZC   7 o2
M  ZZC   8 c5
M  ZZC   9 c6
M  ZZC  10 c7
M  ZZC  11 c8
M  ZZC  12 c9
M  ZZC  13 c10
M  ZZC  14 o3
M  ZZC  15 n2
M  ZZC  16 c11
M  ZZC  17 o4
M  ZZC  18 c12
M  ZZC  19 c13
M  ZZC  20 h11
M  ZZC  21 h61
M  ZZC  22 h71
M  ZZC  23 h81
M  ZZC  24 h91
M  ZZC  25 h21
M  ZZC  26 h121
M  ZZC  27 h122
M  ZZC  28 h131
M  ZZC  29 h132
M  ZZM   1 37
M  ZZI   1 125
M  ZZM   2 37
M  ZZI   2 124
M  ZZM   3 3
M  ZZI   3 121
M  ZZM   4 7
M  ZZI   4 81
M  ZZM   5 10
M  ZZI   5 192
M  ZZM   6 3
M  ZZI   6 121
M  ZZM   7 7
M  ZZI   7 81
M  ZZM   8 37
M  ZZI   8 124
M  ZZM   9 37
M  ZZI   9 125
M  ZZM  10 37
M  ZZI  10 125
M  ZZM  11 37
M  ZZI  11 125
M  ZZM  12 1
M  ZZI  12 113
M  ZZM  13 3
M  ZZI  13 121
M  ZZM  14 7
M  ZZI  14 81
M  ZZM  15 10
M  ZZI  15 191
M  ZZM  16 3
M  ZZI  16 121
M  ZZM  17 7
M  ZZI  17 81
M  ZZM  18 1
M  ZZI  18 112
M  ZZM  19 1
M  ZZI  19 112
M  ZZM  20 5
M  ZZI  20 1
M  ZZM  21 5
M  ZZI  21 1
M  ZZM  22 5
M  ZZI  22 1
M  ZZM  23 5
M  ZZI  23 1
M  ZZM  24 5
M  ZZI  24 1
M  ZZM  25 28
M  ZZI  25 11
M  ZZM  26 5
M  ZZI  26 1
M  ZZM  27 5
M  ZZI  27 1
M  ZZM  28 5
M  ZZI  28 1
M  ZZM  29 5
M  ZZI  29 1
M  END
> <IX>
1

> <NAME>
Cereblon_3MXF_41.pdb

> <Score>
-20.591561

> <Natom>
29

> <Nflex>
1

> <Hbond>
-4.579605

> <Hphob>
-3.48862

> <VwInt>
-22.340684

> <Dsolv>
13.476263

> <SolEl>
6.99889

> <Eintl>
0.57739

> <RecConf>
ND

> <projPath>
Cereblon_maps/

> <NAME_>
Cereblon_3MXF_41.pdb

$$$$
