Cereblon_2WXL_4.pdb
  MOLSOFT 04032206203D

 29 31  0  0  1  0  0  0  0  0999 V2000
   79.0047   42.4908   42.6715 C   0  0  0  0  0  0  0  0  0  0  0  0
   78.1855   42.1956   41.5963 C   0  0  0  0  0  0  0  0  0  0  0  0
   77.2678   41.0774   41.4112 C   0  0  0  0  0  0  0  0  0  0  0  0
   77.0882   40.2164   42.2587 O   0  0  0  0  0  0  0  0  0  0  0  0
   76.7267   41.2196   40.1467 N   0  0  0  0  0  0  0  0  0  0  0  0
   77.2223   42.3468   39.5232 C   0  0  0  0  0  0  0  0  0  0  0  0
   76.9863   42.7648   38.3970 O   0  0  0  0  0  0  0  0  0  0  0  0
   78.1578   42.9584   40.4675 C   0  0  0  0  0  0  0  0  0  0  0  0
   78.9565   44.0749   40.3252 C   0  0  0  0  0  0  0  0  0  0  0  0
   79.7988   44.3846   41.3869 C   0  0  0  0  0  0  0  0  0  0  0  0
   79.8232   43.6066   42.5448 C   0  0  0  0  0  0  0  0  0  0  0  0
   75.7186   40.3643   39.5140 C   0  0  2  0  0  0  0  0  0  0  0  0
   74.3383   40.9318   39.8037 C   0  0  0  0  0  0  0  0  0  0  0  0
   74.1496   42.1176   40.0187 O   0  0  0  0  0  0  0  0  0  0  0  0
   73.2887   40.0488   39.7274 N   0  0  0  0  0  0  0  0  0  0  0  0
   73.3286   38.7031   39.4564 C   0  0  0  0  0  0  0  0  0  0  0  0
   72.3140   38.0278   39.4017 O   0  0  0  0  0  0  0  0  0  0  0  0
   74.6934   38.1235   39.1778 C   0  0  0  0  0  0  0  0  0  0  0  0
   75.7746   38.8936   39.9149 C   0  0  0  0  0  0  0  0  0  0  0  0
   79.0175   41.8751   43.5665 H   0  0  0  0  0  0  0  0  0  0  0  0
   78.9259   44.6761   39.4241 H   0  0  0  0  0  0  0  0  0  0  0  0
   80.4472   45.2504   41.3171 H   0  0  0  0  0  0  0  0  0  0  0  0
   80.4904   43.8751   43.3585 H   0  0  0  0  0  0  0  0  0  0  0  0
   75.8568   40.4530   38.4345 H   0  0  0  0  0  0  0  0  0  0  0  0
   72.3701   40.4418   39.8908 H   0  0  0  0  0  0  0  0  0  0  0  0
   74.7013   37.0780   39.5003 H   0  0  0  0  0  0  0  0  0  0  0  0
   74.8543   38.1472   38.0956 H   0  0  0  0  0  0  0  0  0  0  0  0
   76.7600   38.4729   39.6918 H   0  0  0  0  0  0  0  0  0  0  0  0
   75.6116   38.7734   40.9895 H   0  0  0  0  0  0  0  0  0  0  0  0
  1 20  1  0  0  0  0
  1  2  1  0  0  0  0
  1 11  2  0  0  0  0
  2  3  1  0  0  0  0
  2  8  2  0  0  0  0
  3  4  2  0  0  0  0
  3  5  1  0  0  0  0
  5  6  1  0  0  0  0
 12  5  1  0  0  0  0
  6  7  2  0  0  0  0
  6  8  1  0  0  0  0
  8  9  1  0  0  0  0
  9 21  1  0  0  0  0
  9 10  2  0  0  0  0
 10 22  1  0  0  0  0
 10 11  1  0  0  0  0
 11 23  1  0  0  0  0
 12 24  1  0  0  0  0
 12 13  1  0  0  0  0
 12 19  1  0  0  0  0
 13 14  2  0  0  0  0
 13 15  1  0  0  0  0
 15 25  1  0  0  0  0
 15 16  1  0  0  0  0
 16 17  2  0  0  0  0
 16 18  1  0  0  0  0
 18 26  1  0  0  0  0
 18 27  1  0  0  0  0
 18 19  1  0  0  0  0
 19 28  1  0  0  0  0
 19 29  1  0  0  0  0
M  ZZC   1 c1
M  ZZC   2 c2
M  ZZC   3 c3
M  ZZC   4 o1
M  ZZC   5 n1
M  ZZC   6 c4
M  ZZC   7 o2
M  ZZC   8 c5
M  ZZC   9 c6
M  ZZC  10 c7
M  ZZC  11 c8
M  ZZC  12 c9
M  ZZC  13 c10
M  ZZC  14 o3
M  ZZC  15 n2
M  ZZC  16 c11
M  ZZC  17 o4
M  ZZC  18 c12
M  ZZC  19 c13
M  ZZC  20 h11
M  ZZC  21 h61
M  ZZC  22 h71
M  ZZC  23 h81
M  ZZC  24 h91
M  ZZC  25 h21
M  ZZC  26 h121
M  ZZC  27 h122
M  ZZC  28 h131
M  ZZC  29 h132
M  ZZM   1 37
M  ZZI   1 125
M  ZZM   2 37
M  ZZI   2 124
M  ZZM   3 3
M  ZZI   3 121
M  ZZM   4 7
M  ZZI   4 81
M  ZZM   5 10
M  ZZI   5 192
M  ZZM   6 3
M  ZZI   6 121
M  ZZM   7 7
M  ZZI   7 81
M  ZZM   8 37
M  ZZI   8 124
M  ZZM   9 37
M  ZZI   9 125
M  ZZM  10 37
M  ZZI  10 125
M  ZZM  11 37
M  ZZI  11 125
M  ZZM  12 1
M  ZZI  12 113
M  ZZM  13 3
M  ZZI  13 121
M  ZZM  14 7
M  ZZI  14 81
M  ZZM  15 10
M  ZZI  15 191
M  ZZM  16 3
M  ZZI  16 121
M  ZZM  17 7
M  ZZI  17 81
M  ZZM  18 1
M  ZZI  18 112
M  ZZM  19 1
M  ZZI  19 112
M  ZZM  20 5
M  ZZI  20 1
M  ZZM  21 5
M  ZZI  21 1
M  ZZM  22 5
M  ZZI  22 1
M  ZZM  23 5
M  ZZI  23 1
M  ZZM  24 5
M  ZZI  24 1
M  ZZM  25 28
M  ZZI  25 11
M  ZZM  26 5
M  ZZI  26 1
M  ZZM  27 5
M  ZZI  27 1
M  ZZM  28 5
M  ZZI  28 1
M  ZZM  29 5
M  ZZI  29 1
M  END
> <IX>
1

> <NAME>
Cereblon_2WXL_4.pdb

> <Score>
-19.33093

> <Natom>
29

> <Nflex>
1

> <Hbond>
-3.367487

> <Hphob>
-3.541871

> <VwInt>
-22.691677

> <Dsolv>
12.046717

> <SolEl>
5.657956

> <Eintl>
1.473757

> <RecConf>
ND

> <projPath>
Cereblon_maps/

> <NAME_>
Cereblon_2WXL_4.pdb

$$$$
