Cereblon_6Z45_8.pdb
  MOLSOFT 04032206303D

 29 31  0  0  1  0  0  0  0  0999 V2000
   79.0021   42.4939   42.6684 C   0  0  0  0  0  0  0  0  0  0  0  0
   78.1836   42.1977   41.5935 C   0  0  0  0  0  0  0  0  0  0  0  0
   77.2660   41.0789   41.4095 C   0  0  0  0  0  0  0  0  0  0  0  0
   77.0859   40.2188   42.2579 O   0  0  0  0  0  0  0  0  0  0  0  0
   76.7254   41.2195   40.1448 N   0  0  0  0  0  0  0  0  0  0  0  0
   77.2212   42.3458   39.5200 C   0  0  0  0  0  0  0  0  0  0  0  0
   76.9858   42.7622   38.3931 O   0  0  0  0  0  0  0  0  0  0  0  0
   78.1559   42.9593   40.4642 C   0  0  0  0  0  0  0  0  0  0  0  0
   78.9549   44.0757   40.3201 C   0  0  0  0  0  0  0  0  0  0  0  0
   79.7980   44.3856   41.3815 C   0  0  0  0  0  0  0  0  0  0  0  0
   79.8215   43.6088   42.5406 C   0  0  0  0  0  0  0  0  0  0  0  0
   75.7168   40.3636   39.5133 C   0  0  2  0  0  0  0  0  0  0  0  0
   74.3381   40.9320   39.8024 C   0  0  0  0  0  0  0  0  0  0  0  0
   74.1487   42.1180   40.0158 O   0  0  0  0  0  0  0  0  0  0  0  0
   73.2878   40.0495   39.7286 N   0  0  0  0  0  0  0  0  0  0  0  0
   73.3262   38.7038   39.4560 C   0  0  0  0  0  0  0  0  0  0  0  0
   72.3106   38.0302   39.3979 O   0  0  0  0  0  0  0  0  0  0  0  0
   74.6903   38.1234   39.1787 C   0  0  0  0  0  0  0  0  0  0  0  0
   75.7720   38.8934   39.9156 C   0  0  0  0  0  0  0  0  0  0  0  0
   79.0136   41.8791   43.5642 H   0  0  0  0  0  0  0  0  0  0  0  0
   78.9256   44.6738   39.4182 H   0  0  0  0  0  0  0  0  0  0  0  0
   80.4462   45.2512   41.3114 H   0  0  0  0  0  0  0  0  0  0  0  0
   80.4885   43.8779   43.3544 H   0  0  0  0  0  0  0  0  0  0  0  0
   75.8548   40.4505   38.4330 H   0  0  0  0  0  0  0  0  0  0  0  0
   72.3694   40.4428   39.8927 H   0  0  0  0  0  0  0  0  0  0  0  0
   74.6973   37.0775   39.5031 H   0  0  0  0  0  0  0  0  0  0  0  0
   74.8517   38.1465   38.0967 H   0  0  0  0  0  0  0  0  0  0  0  0
   75.6093   38.7735   40.9904 H   0  0  0  0  0  0  0  0  0  0  0  0
   76.7579   38.4716   39.6922 H   0  0  0  0  0  0  0  0  0  0  0  0
  1 20  1  0  0  0  0
  1  2  1  0  0  0  0
  1 11  2  0  0  0  0
  2  3  1  0  0  0  0
  2  8  2  0  0  0  0
  3  4  2  0  0  0  0
  3  5  1  0  0  0  0
  5  6  1  0  0  0  0
 12  5  1  0  0  0  0
  6  7  2  0  0  0  0
  6  8  1  0  0  0  0
  8  9  1  0  0  0  0
  9 21  1  0  0  0  0
  9 10  2  0  0  0  0
 10 22  1  0  0  0  0
 10 11  1  0  0  0  0
 11 23  1  0  0  0  0
 12 24  1  0  0  0  0
 12 13  1  0  0  0  0
 12 19  1  0  0  0  0
 13 14  2  0  0  0  0
 13 15  1  0  0  0  0
 15 25  1  0  0  0  0
 15 16  1  0  0  0  0
 16 17  2  0  0  0  0
 16 18  1  0  0  0  0
 18 26  1  0  0  0  0
 18 27  1  0  0  0  0
 18 19  1  0  0  0  0
 19 28  1  0  0  0  0
 19 29  1  0  0  0  0
M  ZZC   1 c1
M  ZZC   2 c2
M  ZZC   3 c3
M  ZZC   4 o1
M  ZZC   5 n1
M  ZZC   6 c4
M  ZZC   7 o2
M  ZZC   8 c5
M  ZZC   9 c6
M  ZZC  10 c7
M  ZZC  11 c8
M  ZZC  12 c9
M  ZZC  13 c10
M  ZZC  14 o3
M  ZZC  15 n2
M  ZZC  16 c11
M  ZZC  17 o4
M  ZZC  18 c12
M  ZZC  19 c13
M  ZZC  20 h11
M  ZZC  21 h61
M  ZZC  22 h71
M  ZZC  23 h81
M  ZZC  24 h91
M  ZZC  25 h21
M  ZZC  26 h121
M  ZZC  27 h122
M  ZZC  28 h131
M  ZZC  29 h132
M  ZZM   1 37
M  ZZI   1 125
M  ZZM   2 37
M  ZZI   2 124
M  ZZM   3 3
M  ZZI   3 121
M  ZZM   4 7
M  ZZI   4 81
M  ZZM   5 10
M  ZZI   5 192
M  ZZM   6 3
M  ZZI   6 121
M  ZZM   7 7
M  ZZI   7 81
M  ZZM   8 37
M  ZZI   8 124
M  ZZM   9 37
M  ZZI   9 125
M  ZZM  10 37
M  ZZI  10 125
M  ZZM  11 37
M  ZZI  11 125
M  ZZM  12 1
M  ZZI  12 113
M  ZZM  13 3
M  ZZI  13 121
M  ZZM  14 7
M  ZZI  14 81
M  ZZM  15 10
M  ZZI  15 191
M  ZZM  16 3
M  ZZI  16 121
M  ZZM  17 7
M  ZZI  17 81
M  ZZM  18 1
M  ZZI  18 112
M  ZZM  19 1
M  ZZI  19 112
M  ZZM  20 5
M  ZZI  20 1
M  ZZM  21 5
M  ZZI  21 1
M  ZZM  22 5
M  ZZI  22 1
M  ZZM  23 5
M  ZZI  23 1
M  ZZM  24 5
M  ZZI  24 1
M  ZZM  25 28
M  ZZI  25 11
M  ZZM  26 5
M  ZZI  26 1
M  ZZM  27 5
M  ZZI  27 1
M  ZZM  28 5
M  ZZI  28 1
M  ZZM  29 5
M  ZZI  29 1
M  END
> <IX>
1

> <NAME>
Cereblon_6Z45_8.pdb

> <Score>
-19.358303

> <Natom>
29

> <Nflex>
1

> <Hbond>
-3.368736

> <Hphob>
-3.57073

> <VwInt>
-22.693795

> <Dsolv>
11.964447

> <SolEl>
5.743187

> <Eintl>
1.478243

> <RecConf>
ND

> <projPath>
Cereblon_maps/

> <NAME_>
Cereblon_6Z45_8.pdb

$$$$
