Cereblon_5EU1_1.pdb
  MOLSOFT 04032206243D

 29 31  0  0  1  0  0  0  0  0999 V2000
   79.8199   43.6041   42.5487 C   0  0  0  0  0  0  0  0  0  0  0  0
   79.0015   42.4879   42.6738 C   0  0  0  0  0  0  0  0  0  0  0  0
   78.1839   42.1936   41.5971 C   0  0  0  0  0  0  0  0  0  0  0  0
   77.2683   41.0743   41.4097 C   0  0  0  0  0  0  0  0  0  0  0  0
   77.0902   40.2120   42.2563 O   0  0  0  0  0  0  0  0  0  0  0  0
   76.7266   41.2180   40.1456 N   0  0  0  0  0  0  0  0  0  0  0  0
   77.2227   42.3456   39.5233 C   0  0  0  0  0  0  0  0  0  0  0  0
   76.9879   42.7646   38.3972 O   0  0  0  0  0  0  0  0  0  0  0  0
   78.1565   42.9576   40.4693 C   0  0  0  0  0  0  0  0  0  0  0  0
   78.9552   44.0742   40.3282 C   0  0  0  0  0  0  0  0  0  0  0  0
   79.7970   44.3825   41.3911 C   0  0  0  0  0  0  0  0  0  0  0  0
   75.7170   40.3648   39.5124 C   0  0  2  0  0  0  0  0  0  0  0  0
   74.3382   40.9361   39.8008 C   0  0  0  0  0  0  0  0  0  0  0  0
   74.1530   42.1228   40.0142 O   0  0  0  0  0  0  0  0  0  0  0  0
   73.2867   40.0557   39.7254 N   0  0  0  0  0  0  0  0  0  0  0  0
   73.3225   38.7107   39.4493 C   0  0  0  0  0  0  0  0  0  0  0  0
   72.3054   38.0398   39.3856 O   0  0  0  0  0  0  0  0  0  0  0  0
   74.6867   38.1258   39.1760 C   0  0  0  0  0  0  0  0  0  0  0  0
   75.7685   38.8944   39.9142 C   0  0  0  0  0  0  0  0  0  0  0  0
   80.4852   43.8748   43.3637 H   0  0  0  0  0  0  0  0  0  0  0  0
   79.0130   41.8726   43.5692 H   0  0  0  0  0  0  0  0  0  0  0  0
   78.9250   44.6763   39.4280 H   0  0  0  0  0  0  0  0  0  0  0  0
   80.4447   45.2489   41.3231 H   0  0  0  0  0  0  0  0  0  0  0  0
   75.8571   40.4533   38.4330 H   0  0  0  0  0  0  0  0  0  0  0  0
   72.3686   40.4506   39.8870 H   0  0  0  0  0  0  0  0  0  0  0  0
   74.6902   37.0807   39.5017 H   0  0  0  0  0  0  0  0  0  0  0  0
   74.8506   38.1458   38.0942 H   0  0  0  0  0  0  0  0  0  0  0  0
   75.6040   38.7755   40.9888 H   0  0  0  0  0  0  0  0  0  0  0  0
   76.7537   38.4711   39.6925 H   0  0  0  0  0  0  0  0  0  0  0  0
  1 20  1  0  0  0  0
  1  2  1  0  0  0  0
  1 11  2  0  0  0  0
  2 21  1  0  0  0  0
  2  3  2  0  0  0  0
  3  4  1  0  0  0  0
  3  9  1  0  0  0  0
  4  5  2  0  0  0  0
  4  6  1  0  0  0  0
  6  7  1  0  0  0  0
 12  6  1  0  0  0  0
  7  8  2  0  0  0  0
  7  9  1  0  0  0  0
  9 10  2  0  0  0  0
 10 22  1  0  0  0  0
 10 11  1  0  0  0  0
 11 23  1  0  0  0  0
 12 24  1  0  0  0  0
 12 13  1  0  0  0  0
 12 19  1  0  0  0  0
 13 14  2  0  0  0  0
 13 15  1  0  0  0  0
 15 25  1  0  0  0  0
 15 16  1  0  0  0  0
 16 17  2  0  0  0  0
 16 18  1  0  0  0  0
 18 26  1  0  0  0  0
 18 27  1  0  0  0  0
 18 19  1  0  0  0  0
 19 28  1  0  0  0  0
 19 29  1  0  0  0  0
M  ZZC   1 c1
M  ZZC   2 c2
M  ZZC   3 c3
M  ZZC   4 c4
M  ZZC   5 o1
M  ZZC   6 n1
M  ZZC   7 c5
M  ZZC   8 o2
M  ZZC   9 c6
M  ZZC  10 c7
M  ZZC  11 c8
M  ZZC  12 c9
M  ZZC  13 c10
M  ZZC  14 o3
M  ZZC  15 n2
M  ZZC  16 c11
M  ZZC  17 o4
M  ZZC  18 c12
M  ZZC  19 c13
M  ZZC  20 h11
M  ZZC  21 h21
M  ZZC  22 h71
M  ZZC  23 h81
M  ZZC  24 h91
M  ZZC  25 h01
M  ZZC  26 h121
M  ZZC  27 h122
M  ZZC  28 h131
M  ZZC  29 h132
M  ZZM   1 37
M  ZZI   1 125
M  ZZM   2 37
M  ZZI   2 125
M  ZZM   3 37
M  ZZI   3 124
M  ZZM   4 3
M  ZZI   4 121
M  ZZM   5 7
M  ZZI   5 81
M  ZZM   6 10
M  ZZI   6 192
M  ZZM   7 3
M  ZZI   7 121
M  ZZM   8 7
M  ZZI   8 81
M  ZZM   9 37
M  ZZI   9 124
M  ZZM  10 37
M  ZZI  10 125
M  ZZM  11 37
M  ZZI  11 125
M  ZZM  12 1
M  ZZI  12 113
M  ZZM  13 3
M  ZZI  13 121
M  ZZM  14 7
M  ZZI  14 81
M  ZZM  15 10
M  ZZI  15 191
M  ZZM  16 3
M  ZZI  16 121
M  ZZM  17 7
M  ZZI  17 81
M  ZZM  18 1
M  ZZI  18 112
M  ZZM  19 1
M  ZZI  19 112
M  ZZM  20 5
M  ZZI  20 1
M  ZZM  21 5
M  ZZI  21 1
M  ZZM  22 5
M  ZZI  22 1
M  ZZM  23 5
M  ZZI  23 1
M  ZZM  24 5
M  ZZI  24 1
M  ZZM  25 28
M  ZZI  25 11
M  ZZM  26 5
M  ZZI  26 1
M  ZZM  27 5
M  ZZI  27 1
M  ZZM  28 5
M  ZZI  28 1
M  ZZM  29 5
M  ZZI  29 1
M  END
> <IX>
1

> <NAME>
Cereblon_5EU1_1.pdb

> <Score>
-19.386581

> <Natom>
29

> <Nflex>
1

> <Hbond>
-3.361503

> <Hphob>
-3.521989

> <VwInt>
-22.731795

> <Dsolv>
12.017

> <SolEl>
5.598422

> <Eintl>
1.503069

> <RecConf>
ND

> <projPath>
Cereblon_maps/

> <NAME_>
Cereblon_5EU1_1.pdb

$$$$
