Cereblon_6HMB_2.pdb
  MOLSOFT 04032206283D

 29 31  0  0  1  0  0  0  0  0999 V2000
   79.0007   42.4883   42.6717 C   0  0  0  0  0  0  0  0  0  0  0  0
   78.1826   42.1935   41.5956 C   0  0  0  0  0  0  0  0  0  0  0  0
   77.2663   41.0749   41.4092 C   0  0  0  0  0  0  0  0  0  0  0  0
   77.0860   40.2135   42.2561 O   0  0  0  0  0  0  0  0  0  0  0  0
   76.7243   41.2177   40.1451 N   0  0  0  0  0  0  0  0  0  0  0  0
   77.2214   42.3444   39.5218 C   0  0  0  0  0  0  0  0  0  0  0  0
   76.9871   42.7639   38.3958 O   0  0  0  0  0  0  0  0  0  0  0  0
   78.1559   42.9560   40.4672 C   0  0  0  0  0  0  0  0  0  0  0  0
   78.9552   44.0720   40.3253 C   0  0  0  0  0  0  0  0  0  0  0  0
   79.7972   44.3819   41.3876 C   0  0  0  0  0  0  0  0  0  0  0  0
   79.8206   43.6034   42.5454 C   0  0  0  0  0  0  0  0  0  0  0  0
   75.7148   40.3647   39.5123 C   0  0  2  0  0  0  0  0  0  0  0  0
   74.3355   40.9350   39.8022 C   0  0  0  0  0  0  0  0  0  0  0  0
   74.1494   42.1213   40.0161 O   0  0  0  0  0  0  0  0  0  0  0  0
   73.2846   40.0537   39.7272 N   0  0  0  0  0  0  0  0  0  0  0  0
   73.3211   38.7090   39.4502 C   0  0  0  0  0  0  0  0  0  0  0  0
   72.3043   38.0377   39.3880 O   0  0  0  0  0  0  0  0  0  0  0  0
   74.6853   38.1264   39.1734 C   0  0  0  0  0  0  0  0  0  0  0  0
   75.7676   38.8941   39.9120 C   0  0  0  0  0  0  0  0  0  0  0  0
   79.0108   41.8737   43.5676 H   0  0  0  0  0  0  0  0  0  0  0  0
   78.9259   44.6733   39.4244 H   0  0  0  0  0  0  0  0  0  0  0  0
   80.4456   45.2475   41.3175 H   0  0  0  0  0  0  0  0  0  0  0  0
   80.4879   43.8714   43.3596 H   0  0  0  0  0  0  0  0  0  0  0  0
   75.8534   40.4536   38.4327 H   0  0  0  0  0  0  0  0  0  0  0  0
   72.3665   40.4475   39.8917 H   0  0  0  0  0  0  0  0  0  0  0  0
   74.6906   37.0807   39.4968 H   0  0  0  0  0  0  0  0  0  0  0  0
   74.8477   38.1501   38.0914 H   0  0  0  0  0  0  0  0  0  0  0  0
   75.6039   38.7739   40.9867 H   0  0  0  0  0  0  0  0  0  0  0  0
   76.7527   38.4720   39.6883 H   0  0  0  0  0  0  0  0  0  0  0  0
  1 20  1  0  0  0  0
  1  2  1  0  0  0  0
  1 11  2  0  0  0  0
  2  3  1  0  0  0  0
  2  8  2  0  0  0  0
  3  4  2  0  0  0  0
  3  5  1  0  0  0  0
  5  6  1  0  0  0  0
 12  5  1  0  0  0  0
  6  7  2  0  0  0  0
  6  8  1  0  0  0  0
  8  9  1  0  0  0  0
  9 21  1  0  0  0  0
  9 10  2  0  0  0  0
 10 22  1  0  0  0  0
 10 11  1  0  0  0  0
 11 23  1  0  0  0  0
 12 24  1  0  0  0  0
 12 13  1  0  0  0  0
 12 19  1  0  0  0  0
 13 14  2  0  0  0  0
 13 15  1  0  0  0  0
 15 25  1  0  0  0  0
 15 16  1  0  0  0  0
 16 17  2  0  0  0  0
 16 18  1  0  0  0  0
 18 26  1  0  0  0  0
 18 27  1  0  0  0  0
 18 19  1  0  0  0  0
 19 28  1  0  0  0  0
 19 29  1  0  0  0  0
M  ZZC   1 c1
M  ZZC   2 c2
M  ZZC   3 c3
M  ZZC   4 o1
M  ZZC   5 n1
M  ZZC   6 c4
M  ZZC   7 o2
M  ZZC   8 c5
M  ZZC   9 c6
M  ZZC  10 c7
M  ZZC  11 c8
M  ZZC  12 c9
M  ZZC  13 c10
M  ZZC  14 o3
M  ZZC  15 n2
M  ZZC  16 c11
M  ZZC  17 o4
M  ZZC  18 c12
M  ZZC  19 c13
M  ZZC  20 h11
M  ZZC  21 h61
M  ZZC  22 h71
M  ZZC  23 h81
M  ZZC  24 h91
M  ZZC  25 h21
M  ZZC  26 h121
M  ZZC  27 h122
M  ZZC  28 h131
M  ZZC  29 h132
M  ZZM   1 37
M  ZZI   1 125
M  ZZM   2 37
M  ZZI   2 124
M  ZZM   3 3
M  ZZI   3 121
M  ZZM   4 7
M  ZZI   4 81
M  ZZM   5 10
M  ZZI   5 192
M  ZZM   6 3
M  ZZI   6 121
M  ZZM   7 7
M  ZZI   7 81
M  ZZM   8 37
M  ZZI   8 124
M  ZZM   9 37
M  ZZI   9 125
M  ZZM  10 37
M  ZZI  10 125
M  ZZM  11 37
M  ZZI  11 125
M  ZZM  12 1
M  ZZI  12 113
M  ZZM  13 3
M  ZZI  13 121
M  ZZM  14 7
M  ZZI  14 81
M  ZZM  15 10
M  ZZI  15 191
M  ZZM  16 3
M  ZZI  16 121
M  ZZM  17 7
M  ZZI  17 81
M  ZZM  18 1
M  ZZI  18 112
M  ZZM  19 1
M  ZZI  19 112
M  ZZM  20 5
M  ZZI  20 1
M  ZZM  21 5
M  ZZI  21 1
M  ZZM  22 5
M  ZZI  22 1
M  ZZM  23 5
M  ZZI  23 1
M  ZZM  24 5
M  ZZI  24 1
M  ZZM  25 28
M  ZZI  25 11
M  ZZM  26 5
M  ZZI  26 1
M  ZZM  27 5
M  ZZI  27 1
M  ZZM  28 5
M  ZZI  28 1
M  ZZM  29 5
M  ZZI  29 1
M  END
> <IX>
1

> <NAME>
Cereblon_6HMB_2.pdb

> <Score>
-19.385099

> <Natom>
29

> <Nflex>
1

> <Hbond>
-3.368138

> <Hphob>
-3.560886

> <VwInt>
-22.70057

> <Dsolv>
12.024409

> <SolEl>
5.637233

> <Eintl>
1.472955

> <RecConf>
ND

> <projPath>
Cereblon_maps/

> <NAME_>
Cereblon_6HMB_2.pdb

$$$$
