Cereblon_4MXO_4.pdb
  MOLSOFT 04032206233D

 31 33  0  0  1  0  0  0  0  0999 V2000
   78.8115   41.6764   43.8204 N   0  0  0  0  0  0  0  0  0  0  0  0
   78.9064   42.4209   42.6341 C   0  0  0  0  0  0  0  0  0  0  0  0
   78.1009   42.1562   41.5393 C   0  0  0  0  0  0  0  0  0  0  0  0
   77.1797   41.0460   41.3313 C   0  0  0  0  0  0  0  0  0  0  0  0
   76.9979   40.1633   42.1568 O   0  0  0  0  0  0  0  0  0  0  0  0
   76.6461   41.2107   40.0685 N   0  0  0  0  0  0  0  0  0  0  0  0
   77.1674   42.3319   39.4556 C   0  0  0  0  0  0  0  0  0  0  0  0
   76.9544   42.7553   38.3269 O   0  0  0  0  0  0  0  0  0  0  0  0
   78.0985   42.9264   40.4159 C   0  0  0  0  0  0  0  0  0  0  0  0
   78.9098   44.0361   40.2963 C   0  0  0  0  0  0  0  0  0  0  0  0
   79.7249   44.3355   41.3818 C   0  0  0  0  0  0  0  0  0  0  0  0
   79.7111   43.5522   42.5374 C   0  0  0  0  0  0  0  0  0  0  0  0
   75.6259   40.3752   39.4313 C   0  0  2  0  0  0  0  0  0  0  0  0
   74.2549   40.9544   39.7362 C   0  0  0  0  0  0  0  0  0  0  0  0
   74.0848   42.1347   39.9931 O   0  0  0  0  0  0  0  0  0  0  0  0
   73.1939   40.0895   39.6225 N   0  0  0  0  0  0  0  0  0  0  0  0
   73.2176   38.7524   39.3078 C   0  0  0  0  0  0  0  0  0  0  0  0
   72.1921   38.1007   39.1963 O   0  0  0  0  0  0  0  0  0  0  0  0
   74.5804   38.1524   39.0557 C   0  0  0  0  0  0  0  0  0  0  0  0
   75.6585   38.9006   39.8198 C   0  0  0  0  0  0  0  0  0  0  0  0
   79.5519   41.7596   44.5136 H   0  0  0  0  0  0  0  0  0  0  0  0
   78.3217   40.7814   43.7766 H   0  0  0  0  0  0  0  0  0  0  0  0
   78.9028   44.6444   39.3995 H   0  0  0  0  0  0  0  0  0  0  0  0
   80.3732   45.2036   41.3378 H   0  0  0  0  0  0  0  0  0  0  0  0
   80.3421   43.8340   43.3748 H   0  0  0  0  0  0  0  0  0  0  0  0
   75.7606   40.4758   38.3531 H   0  0  0  0  0  0  0  0  0  0  0  0
   72.2788   40.4918   39.7833 H   0  0  0  0  0  0  0  0  0  0  0  0
   74.5643   37.1046   39.3720 H   0  0  0  0  0  0  0  0  0  0  0  0
   74.7688   38.1771   37.9780 H   0  0  0  0  0  0  0  0  0  0  0  0
   75.4734   38.7726   40.8902 H   0  0  0  0  0  0  0  0  0  0  0  0
   76.6431   38.4693   39.6122 H   0  0  0  0  0  0  0  0  0  0  0  0
  1  2  1  0  0  0  0
  1 21  1  0  0  0  0
  1 22  1  0  0  0  0
  2  3  1  0  0  0  0
  2 12  2  0  0  0  0
  3  9  2  0  0  0  0
  3  4  1  0  0  0  0
  4  5  2  0  0  0  0
  4  6  1  0  0  0  0
  6  7  1  0  0  0  0
 13  6  1  0  0  0  0
  7  8  2  0  0  0  0
  7  9  1  0  0  0  0
  9 10  1  0  0  0  0
 10 23  1  0  0  0  0
 10 11  2  0  0  0  0
 11 12  1  0  0  0  0
 11 24  1  0  0  0  0
 12 25  1  0  0  0  0
 13 26  1  0  0  0  0
 13 14  1  0  0  0  0
 13 20  1  0  0  0  0
 14 15  2  0  0  0  0
 14 16  1  0  0  0  0
 16 27  1  0  0  0  0
 16 17  1  0  0  0  0
 17 18  2  0  0  0  0
 17 19  1  0  0  0  0
 19 28  1  0  0  0  0
 19 29  1  0  0  0  0
 19 20  1  0  0  0  0
 20 30  1  0  0  0  0
 20 31  1  0  0  0  0
M  ZZC   1 n1
M  ZZC   2 c1
M  ZZC   3 c2
M  ZZC   4 c3
M  ZZC   5 o1
M  ZZC   6 n2
M  ZZC   7 c4
M  ZZC   8 o2
M  ZZC   9 c5
M  ZZC  10 c6
M  ZZC  11 c7
M  ZZC  12 c8
M  ZZC  13 c9
M  ZZC  14 c10
M  ZZC  15 o3
M  ZZC  16 n3
M  ZZC  17 c11
M  ZZC  18 o4
M  ZZC  19 c12
M  ZZC  20 c13
M  ZZC  21 h11
M  ZZC  22 h12
M  ZZC  23 h61
M  ZZC  24 h71
M  ZZC  25 h81
M  ZZC  26 h91
M  ZZC  27 h31
M  ZZC  28 h121
M  ZZC  29 h122
M  ZZC  30 h131
M  ZZC  31 h132
M  ZZM   1 40
M  ZZI   1 224
M  ZZM   2 37
M  ZZI   2 124
M  ZZM   3 37
M  ZZI   3 124
M  ZZM   4 3
M  ZZI   4 121
M  ZZM   5 7
M  ZZI   5 81
M  ZZM   6 10
M  ZZI   6 192
M  ZZM   7 3
M  ZZI   7 121
M  ZZM   8 7
M  ZZI   8 81
M  ZZM   9 37
M  ZZI   9 124
M  ZZM  10 37
M  ZZI  10 125
M  ZZM  11 37
M  ZZI  11 125
M  ZZM  12 37
M  ZZI  12 125
M  ZZM  13 1
M  ZZI  13 113
M  ZZM  14 3
M  ZZI  14 121
M  ZZM  15 7
M  ZZI  15 81
M  ZZM  16 10
M  ZZI  16 191
M  ZZM  17 3
M  ZZI  17 121
M  ZZM  18 7
M  ZZI  18 81
M  ZZM  19 1
M  ZZI  19 112
M  ZZM  20 1
M  ZZI  20 112
M  ZZM  21 28
M  ZZI  21 11
M  ZZM  22 28
M  ZZI  22 11
M  ZZM  23 5
M  ZZI  23 1
M  ZZM  24 5
M  ZZI  24 1
M  ZZM  25 5
M  ZZI  25 1
M  ZZM  26 5
M  ZZI  26 1
M  ZZM  27 28
M  ZZI  27 11
M  ZZM  28 5
M  ZZI  28 1
M  ZZM  29 5
M  ZZI  29 1
M  ZZM  30 5
M  ZZI  30 1
M  ZZM  31 5
M  ZZI  31 1
M  END
> <IX>
1

> <NAME>
Cereblon_4MXO_4.pdb

> <Score>
-18.439888

> <Natom>
31

> <Nflex>
1

> <Hbond>
-3.700276

> <Hphob>
-3.552637

> <VwInt>
-24.21408

> <Dsolv>
15.172221

> <SolEl>
6.854881

> <Eintl>
1.687949

> <RecConf>
ND

> <projPath>
Cereblon_maps/

> <NAME_>
Cereblon_4MXO_4.pdb

$$$$
