Cereblon_2GQG_31.pdb
  MOLSOFT 04032206203D

 30 32  0  0  1  0  0  0  0  0999 V2000
   78.9590   42.3482   42.8119 C   0  0  0  0  0  0  0  0  0  0  0  0
   78.1538   42.0557   41.7237 C   0  0  0  0  0  0  0  0  0  0  0  0
   78.1627   42.8622   40.6164 C   0  0  0  0  0  0  0  0  0  0  0  0
   77.2324   42.3023   39.6274 C   0  0  0  0  0  0  0  0  0  0  0  0
   77.0155   42.7689   38.5165 O   0  0  0  0  0  0  0  0  0  0  0  0
   76.7059   41.1584   40.1955 N   0  0  0  0  0  0  0  0  0  0  0  0
   75.6919   40.3320   39.5357 C   0  0  2  0  0  0  0  0  0  0  0  0
   74.3088   40.9173   39.7944 C   0  0  0  0  0  0  0  0  0  0  0  0
   74.1214   42.1058   39.9975 O   0  0  0  0  0  0  0  0  0  0  0  0
   73.2540   40.0413   39.7136 N   0  0  0  0  0  0  0  0  0  0  0  0
   73.2849   38.6937   39.4531 C   0  0  0  0  0  0  0  0  0  0  0  0
   72.2643   38.0287   39.3845 O   0  0  0  0  0  0  0  0  0  0  0  0
   74.6477   38.0969   39.2053 C   0  0  0  0  0  0  0  0  0  0  0  0
   75.7295   38.8640   39.9440 C   0  0  0  0  0  0  0  0  0  0  0  0
   77.2291   40.9110   41.5293 C   0  0  0  0  0  0  0  0  0  0  0  0
   78.9683   43.9791   40.5098 C   0  0  0  0  0  0  0  0  0  0  0  0
   79.7884   44.2697   41.5914 C   0  0  0  0  0  0  0  0  0  0  0  0
   79.7828   43.4643   42.7283 C   0  0  0  0  0  0  0  0  0  0  0  0
   78.9572   41.7223   43.6996 H   0  0  0  0  0  0  0  0  0  0  0  0
   75.8566   40.4231   38.4599 H   0  0  0  0  0  0  0  0  0  0  0  0
   72.3367   40.4451   39.8564 H   0  0  0  0  0  0  0  0  0  0  0  0
   74.6399   37.0554   39.5424 H   0  0  0  0  0  0  0  0  0  0  0  0
   74.8263   38.1027   38.1254 H   0  0  0  0  0  0  0  0  0  0  0  0
   75.5724   38.7598   41.0223 H   0  0  0  0  0  0  0  0  0  0  0  0
   76.7112   38.4317   39.7240 H   0  0  0  0  0  0  0  0  0  0  0  0
   77.7703   39.9589   41.5416 H   0  0  0  0  0  0  0  0  0  0  0  0
   76.4195   40.9117   42.2621 H   0  0  0  0  0  0  0  0  0  0  0  0
   78.9570   44.5989   39.6206 H   0  0  0  0  0  0  0  0  0  0  0  0
   80.4358   45.1385   41.5544 H   0  0  0  0  0  0  0  0  0  0  0  0
   80.4318   43.7129   43.5628 H   0  0  0  0  0  0  0  0  0  0  0  0
  1 19  1  0  0  0  0
  1 18  2  0  0  0  0
  1  2  1  0  0  0  0
  2  3  2  0  0  0  0
  2 15  1  0  0  0  0
  3 16  1  0  0  0  0
  3  4  1  0  0  0  0
  4  6  1  0  0  0  0
  4  5  2  0  0  0  0
  6 15  1  0  0  0  0
  7  6  1  0  0  0  0
  7 20  1  0  0  0  0
  7  8  1  0  0  0  0
  7 14  1  0  0  0  0
  8  9  2  0  0  0  0
  8 10  1  0  0  0  0
 10 21  1  0  0  0  0
 10 11  1  0  0  0  0
 11 12  2  0  0  0  0
 11 13  1  0  0  0  0
 13 22  1  0  0  0  0
 13 23  1  0  0  0  0
 13 14  1  0  0  0  0
 14 24  1  0  0  0  0
 14 25  1  0  0  0  0
 15 26  1  0  0  0  0
 15 27  1  0  0  0  0
 16 17  2  0  0  0  0
 16 28  1  0  0  0  0
 17 18  1  0  0  0  0
 17 29  1  0  0  0  0
 18 30  1  0  0  0  0
M  ZZC   1 c1
M  ZZC   2 c2
M  ZZC   3 c3
M  ZZC   4 c4
M  ZZC   5 o1
M  ZZC   6 n1
M  ZZC   7 c5
M  ZZC   8 c6
M  ZZC   9 o2
M  ZZC  10 n2
M  ZZC  11 c7
M  ZZC  12 o3
M  ZZC  13 c8
M  ZZC  14 c9
M  ZZC  15 c10
M  ZZC  16 c11
M  ZZC  17 c12
M  ZZC  18 c13
M  ZZC  19 h11
M  ZZC  20 h51
M  ZZC  21 h21
M  ZZC  22 h81
M  ZZC  23 h82
M  ZZC  24 h91
M  ZZC  25 h92
M  ZZC  26 h101
M  ZZC  27 h102
M  ZZC  28 h111
M  ZZC  29 h121
M  ZZC  30 h131
M  ZZM   1 37
M  ZZI   1 125
M  ZZM   2 37
M  ZZI   2 124
M  ZZM   3 37
M  ZZI   3 124
M  ZZM   4 3
M  ZZI   4 121
M  ZZM   5 7
M  ZZI   5 81
M  ZZM   6 10
M  ZZI   6 192
M  ZZM   7 1
M  ZZI   7 113
M  ZZM   8 3
M  ZZI   8 121
M  ZZM   9 7
M  ZZI   9 81
M  ZZM  10 10
M  ZZI  10 191
M  ZZM  11 3
M  ZZI  11 121
M  ZZM  12 7
M  ZZI  12 81
M  ZZM  13 1
M  ZZI  13 112
M  ZZM  14 1
M  ZZI  14 112
M  ZZM  15 1
M  ZZI  15 112
M  ZZM  16 37
M  ZZI  16 125
M  ZZM  17 37
M  ZZI  17 125
M  ZZM  18 37
M  ZZI  18 125
M  ZZM  19 5
M  ZZI  19 1
M  ZZM  20 5
M  ZZI  20 1
M  ZZM  21 28
M  ZZI  21 11
M  ZZM  22 5
M  ZZI  22 1
M  ZZM  23 5
M  ZZI  23 1
M  ZZM  24 5
M  ZZI  24 1
M  ZZM  25 5
M  ZZI  25 1
M  ZZM  26 5
M  ZZI  26 1
M  ZZM  27 5
M  ZZI  27 1
M  ZZM  28 5
M  ZZI  28 1
M  ZZM  29 5
M  ZZI  29 1
M  ZZM  30 5
M  ZZI  30 1
M  END
> <IX>
1

> <NAME>
Cereblon_2GQG_31.pdb

> <Score>
-18.551662

> <Natom>
30

> <Nflex>
1

> <Hbond>
-3.222159

> <Hphob>
-3.868819

> <VwInt>
-21.101085

> <Dsolv>
10.929445

> <SolEl>
5.857623

> <Eintl>
1.050799

> <RecConf>
ND

> <projPath>
Cereblon_maps/

> <NAME_>
Cereblon_2GQG_31.pdb

$$$$
