Cereblon_2HYY_8.pdb
  MOLSOFT 04032206203D

 29 31  0  0  1  0  0  0  0  0999 V2000
   78.9971   42.4808   42.6748 C   0  0  0  0  0  0  0  0  0  0  0  0
   78.1796   42.1889   41.5976 C   0  0  0  0  0  0  0  0  0  0  0  0
   77.2642   41.0698   41.4082 C   0  0  0  0  0  0  0  0  0  0  0  0
   77.0857   40.2062   42.2533 O   0  0  0  0  0  0  0  0  0  0  0  0
   76.7228   41.2163   40.1444 N   0  0  0  0  0  0  0  0  0  0  0  0
   77.2202   42.3440   39.5234 C   0  0  0  0  0  0  0  0  0  0  0  0
   76.9872   42.7630   38.3969 O   0  0  0  0  0  0  0  0  0  0  0  0
   78.1533   42.9544   40.4708 C   0  0  0  0  0  0  0  0  0  0  0  0
   78.9526   44.0708   40.3321 C   0  0  0  0  0  0  0  0  0  0  0  0
   79.7939   44.3778   41.3958 C   0  0  0  0  0  0  0  0  0  0  0  0
   79.8160   43.5967   42.5519 C   0  0  0  0  0  0  0  0  0  0  0  0
   75.7138   40.3635   39.5099 C   0  0  2  0  0  0  0  0  0  0  0  0
   74.3342   40.9342   39.7967 C   0  0  0  0  0  0  0  0  0  0  0  0
   74.1491   42.1203   40.0133 O   0  0  0  0  0  0  0  0  0  0  0  0
   73.2827   40.0540   39.7176 N   0  0  0  0  0  0  0  0  0  0  0  0
   73.3193   38.7089   39.4425 C   0  0  0  0  0  0  0  0  0  0  0  0
   72.3025   38.0375   39.3787 O   0  0  0  0  0  0  0  0  0  0  0  0
   74.6840   38.1252   39.1701 C   0  0  0  0  0  0  0  0  0  0  0  0
   75.7649   38.8928   39.9107 C   0  0  0  0  0  0  0  0  0  0  0  0
   79.0044   41.8649   43.5698 H   0  0  0  0  0  0  0  0  0  0  0  0
   78.9243   44.6740   39.4325 H   0  0  0  0  0  0  0  0  0  0  0  0
   80.4438   45.2426   41.3277 H   0  0  0  0  0  0  0  0  0  0  0  0
   80.4831   43.8630   43.3669 H   0  0  0  0  0  0  0  0  0  0  0  0
   75.8550   40.4520   38.4308 H   0  0  0  0  0  0  0  0  0  0  0  0
   72.3645   40.4489   39.8790 H   0  0  0  0  0  0  0  0  0  0  0  0
   74.6871   37.0797   39.4942 H   0  0  0  0  0  0  0  0  0  0  0  0
   74.8492   38.1465   38.0885 H   0  0  0  0  0  0  0  0  0  0  0  0
   75.5983   38.7727   40.9848 H   0  0  0  0  0  0  0  0  0  0  0  0
   76.7504   38.4694   39.6912 H   0  0  0  0  0  0  0  0  0  0  0  0
  1 20  1  0  0  0  0
  1  2  1  0  0  0  0
  1 11  2  0  0  0  0
  2  3  1  0  0  0  0
  2  8  2  0  0  0  0
  3  4  2  0  0  0  0
  3  5  1  0  0  0  0
  5  6  1  0  0  0  0
 12  5  1  0  0  0  0
  6  7  2  0  0  0  0
  6  8  1  0  0  0  0
  8  9  1  0  0  0  0
  9 21  1  0  0  0  0
  9 10  2  0  0  0  0
 10 22  1  0  0  0  0
 10 11  1  0  0  0  0
 11 23  1  0  0  0  0
 12 24  1  0  0  0  0
 12 13  1  0  0  0  0
 12 19  1  0  0  0  0
 13 14  2  0  0  0  0
 13 15  1  0  0  0  0
 15 25  1  0  0  0  0
 15 16  1  0  0  0  0
 16 17  2  0  0  0  0
 16 18  1  0  0  0  0
 18 26  1  0  0  0  0
 18 27  1  0  0  0  0
 18 19  1  0  0  0  0
 19 28  1  0  0  0  0
 19 29  1  0  0  0  0
M  ZZC   1 c1
M  ZZC   2 c2
M  ZZC   3 c3
M  ZZC   4 o1
M  ZZC   5 n1
M  ZZC   6 c4
M  ZZC   7 o2
M  ZZC   8 c5
M  ZZC   9 c6
M  ZZC  10 c7
M  ZZC  11 c8
M  ZZC  12 c9
M  ZZC  13 c10
M  ZZC  14 o3
M  ZZC  15 n2
M  ZZC  16 c11
M  ZZC  17 o4
M  ZZC  18 c12
M  ZZC  19 c13
M  ZZC  20 h11
M  ZZC  21 h61
M  ZZC  22 h71
M  ZZC  23 h81
M  ZZC  24 h91
M  ZZC  25 h21
M  ZZC  26 h121
M  ZZC  27 h122
M  ZZC  28 h131
M  ZZC  29 h132
M  ZZM   1 37
M  ZZI   1 125
M  ZZM   2 37
M  ZZI   2 124
M  ZZM   3 3
M  ZZI   3 121
M  ZZM   4 7
M  ZZI   4 81
M  ZZM   5 10
M  ZZI   5 192
M  ZZM   6 3
M  ZZI   6 121
M  ZZM   7 7
M  ZZI   7 81
M  ZZM   8 37
M  ZZI   8 124
M  ZZM   9 37
M  ZZI   9 125
M  ZZM  10 37
M  ZZI  10 125
M  ZZM  11 37
M  ZZI  11 125
M  ZZM  12 1
M  ZZI  12 113
M  ZZM  13 3
M  ZZI  13 121
M  ZZM  14 7
M  ZZI  14 81
M  ZZM  15 10
M  ZZI  15 191
M  ZZM  16 3
M  ZZI  16 121
M  ZZM  17 7
M  ZZI  17 81
M  ZZM  18 1
M  ZZI  18 112
M  ZZM  19 1
M  ZZI  19 112
M  ZZM  20 5
M  ZZI  20 1
M  ZZM  21 5
M  ZZI  21 1
M  ZZM  22 5
M  ZZI  22 1
M  ZZM  23 5
M  ZZI  23 1
M  ZZM  24 5
M  ZZI  24 1
M  ZZM  25 28
M  ZZI  25 11
M  ZZM  26 5
M  ZZI  26 1
M  ZZM  27 5
M  ZZI  27 1
M  ZZM  28 5
M  ZZI  28 1
M  ZZM  29 5
M  ZZI  29 1
M  END
> <IX>
1

> <NAME>
Cereblon_2HYY_8.pdb

> <Score>
-19.262436

> <Natom>
29

> <Nflex>
1

> <Hbond>
-3.373279

> <Hphob>
-3.521353

> <VwInt>
-22.707553

> <Dsolv>
12.137375

> <SolEl>
5.651724

> <Eintl>
1.509417

> <RecConf>
ND

> <projPath>
Cereblon_maps/

> <NAME_>
Cereblon_2HYY_8.pdb

$$$$
