Cereblon_5TRF_10.pdb
  MOLSOFT 04032206273D

 31 33  0  0  1  0  0  0  0  0999 V2000
   77.3623   41.8974   41.5775 N   0  0  0  0  0  0  0  0  0  0  0  0
   77.0555   40.5966   41.1490 C   0  0  0  0  0  0  0  0  0  0  0  0
   76.0542   40.3152   40.2262 C   0  0  0  0  0  0  0  0  0  0  0  0
   75.1448   41.2060   39.4968 C   0  0  0  0  0  0  0  0  0  0  0  0
   75.0861   42.4113   39.6864 O   0  0  0  0  0  0  0  0  0  0  0  0
   74.3935   40.4069   38.6560 N   0  0  0  0  0  0  0  0  0  0  0  0
   74.6958   39.0770   38.8553 C   0  0  0  0  0  0  0  0  0  0  0  0
   74.2068   38.0840   38.3363 O   0  0  0  0  0  0  0  0  0  0  0  0
   75.7635   39.0373   39.8508 C   0  0  0  0  0  0  0  0  0  0  0  0
   76.4173   37.9399   40.3781 C   0  0  0  0  0  0  0  0  0  0  0  0
   77.3885   38.1924   41.3358 C   0  0  0  0  0  0  0  0  0  0  0  0
   77.6884   39.4974   41.7221 C   0  0  0  0  0  0  0  0  0  0  0  0
   73.3371   40.8481   37.7324 C   0  0  1  0  0  0  0  0  0  0  0  0
   72.0286   41.0628   38.4832 C   0  0  0  0  0  0  0  0  0  0  0  0
   71.7661   40.5183   39.5458 O   0  0  0  0  0  0  0  0  0  0  0  0
   71.1047   41.8642   37.8516 N   0  0  0  0  0  0  0  0  0  0  0  0
   71.2589   42.6290   36.7201 C   0  0  0  0  0  0  0  0  0  0  0  0
   70.3965   43.4079   36.3413 O   0  0  0  0  0  0  0  0  0  0  0  0
   72.5543   42.4304   35.9712 C   0  0  0  0  0  0  0  0  0  0  0  0
   73.6884   42.0962   36.9261 C   0  0  0  0  0  0  0  0  0  0  0  0
   78.1865   42.0505   42.1544 H   0  0  0  0  0  0  0  0  0  0  0  0
   76.9932   42.6948   41.0586 H   0  0  0  0  0  0  0  0  0  0  0  0
   76.1741   36.9277   40.0689 H   0  0  0  0  0  0  0  0  0  0  0  0
   77.9169   37.3631   41.7966 H   0  0  0  0  0  0  0  0  0  0  0  0
   78.4416   39.6559   42.4876 H   0  0  0  0  0  0  0  0  0  0  0  0
   73.1494   40.0220   37.0365 H   0  0  0  0  0  0  0  0  0  0  0  0
   70.2375   42.0008   38.3490 H   0  0  0  0  0  0  0  0  0  0  0  0
   72.4105   41.6336   35.2334 H   0  0  0  0  0  0  0  0  0  0  0  0
   72.7859   43.3537   35.4325 H   0  0  0  0  0  0  0  0  0  0  0  0
   74.6140   41.9427   36.3645 H   0  0  0  0  0  0  0  0  0  0  0  0
   73.8615   42.9515   37.5844 H   0  0  0  0  0  0  0  0  0  0  0  0
  1  2  1  0  0  0  0
  1 21  1  0  0  0  0
  1 22  1  0  0  0  0
  2  3  1  0  0  0  0
  2 12  2  0  0  0  0
  3  9  2  0  0  0  0
  3  4  1  0  0  0  0
  4  5  2  0  0  0  0
  4  6  1  0  0  0  0
  6  7  1  0  0  0  0
 13  6  1  0  0  0  0
  7  8  2  0  0  0  0
  7  9  1  0  0  0  0
  9 10  1  0  0  0  0
 10 23  1  0  0  0  0
 10 11  2  0  0  0  0
 11 12  1  0  0  0  0
 11 24  1  0  0  0  0
 12 25  1  0  0  0  0
 13 26  1  0  0  0  0
 13 14  1  0  0  0  0
 13 20  1  0  0  0  0
 14 15  2  0  0  0  0
 14 16  1  0  0  0  0
 16 27  1  0  0  0  0
 16 17  1  0  0  0  0
 17 18  2  0  0  0  0
 17 19  1  0  0  0  0
 19 28  1  0  0  0  0
 19 29  1  0  0  0  0
 19 20  1  0  0  0  0
 20 30  1  0  0  0  0
 20 31  1  0  0  0  0
M  ZZC   1 n1
M  ZZC   2 c1
M  ZZC   3 c2
M  ZZC   4 c3
M  ZZC   5 o1
M  ZZC   6 n2
M  ZZC   7 c4
M  ZZC   8 o2
M  ZZC   9 c5
M  ZZC  10 c6
M  ZZC  11 c7
M  ZZC  12 c8
M  ZZC  13 c9
M  ZZC  14 c10
M  ZZC  15 o3
M  ZZC  16 n3
M  ZZC  17 c11
M  ZZC  18 o4
M  ZZC  19 c12
M  ZZC  20 c13
M  ZZC  21 h11
M  ZZC  22 h12
M  ZZC  23 h61
M  ZZC  24 h71
M  ZZC  25 h81
M  ZZC  26 h91
M  ZZC  27 h31
M  ZZC  28 h121
M  ZZC  29 h122
M  ZZC  30 h131
M  ZZC  31 h132
M  ZZM   1 40
M  ZZI   1 224
M  ZZM   2 37
M  ZZI   2 124
M  ZZM   3 37
M  ZZI   3 124
M  ZZM   4 3
M  ZZI   4 121
M  ZZM   5 7
M  ZZI   5 81
M  ZZM   6 10
M  ZZI   6 192
M  ZZM   7 3
M  ZZI   7 121
M  ZZM   8 7
M  ZZI   8 81
M  ZZM   9 37
M  ZZI   9 124
M  ZZM  10 37
M  ZZI  10 125
M  ZZM  11 37
M  ZZI  11 125
M  ZZM  12 37
M  ZZI  12 125
M  ZZM  13 1
M  ZZI  13 113
M  ZZM  14 3
M  ZZI  14 121
M  ZZM  15 7
M  ZZI  15 81
M  ZZM  16 10
M  ZZI  16 191
M  ZZM  17 3
M  ZZI  17 121
M  ZZM  18 7
M  ZZI  18 81
M  ZZM  19 1
M  ZZI  19 112
M  ZZM  20 1
M  ZZI  20 112
M  ZZM  21 28
M  ZZI  21 11
M  ZZM  22 28
M  ZZI  22 11
M  ZZM  23 5
M  ZZI  23 1
M  ZZM  24 5
M  ZZI  24 1
M  ZZM  25 5
M  ZZI  25 1
M  ZZM  26 5
M  ZZI  26 1
M  ZZM  27 28
M  ZZI  27 11
M  ZZM  28 5
M  ZZI  28 1
M  ZZM  29 5
M  ZZI  29 1
M  ZZM  30 5
M  ZZI  30 1
M  ZZM  31 5
M  ZZI  31 1
M  END
> <IX>
1

> <NAME>
Cereblon_5TRF_10.pdb

> <Score>
-15.747164

> <Natom>
31

> <Nflex>
1

> <Hbond>
-3.498746

> <Hphob>
-3.638324

> <VwInt>
-24.067986

> <Dsolv>
16.433622

> <SolEl>
9.36568

> <Eintl>
0.839602

> <RecConf>
ND

> <projPath>
Cereblon_maps/

> <NAME_>
Cereblon_5TRF_10.pdb

$$$$
