Cereblon_6QJU_2.pdb
  MOLSOFT 04032206293D

 30 32  0  0  1  0  0  0  0  0999 V2000
   79.3226   56.8927   20.9592 C   0  0  0  0  0  0  0  0  0  0  0  0
   80.6199   56.8106   20.4806 C   0  0  0  0  0  0  0  0  0  0  0  0
   81.2539   55.6020   20.4237 C   0  0  0  0  0  0  0  0  0  0  0  0
   82.6090   55.8136   19.9107 C   0  0  0  0  0  0  0  0  0  0  0  0
   83.4378   54.9212   19.8052 O   0  0  0  0  0  0  0  0  0  0  0  0
   82.7200   57.1659   19.6283 N   0  0  0  0  0  0  0  0  0  0  0  0
   83.8181   57.8227   18.9024 C   0  0  2  0  0  0  0  0  0  0  0  0
   83.6459   57.5698   17.4027 C   0  0  0  0  0  0  0  0  0  0  0  0
   82.5505   57.4882   16.8654 O   0  0  0  0  0  0  0  0  0  0  0  0
   84.7967   57.4968   16.6525 N   0  0  0  0  0  0  0  0  0  0  0  0
   86.0974   57.5319   17.0949 C   0  0  0  0  0  0  0  0  0  0  0  0
   87.0340   57.1693   16.3977 O   0  0  0  0  0  0  0  0  0  0  0  0
   86.2719   58.0371   18.5034 C   0  0  0  0  0  0  0  0  0  0  0  0
   85.2082   57.4152   19.3853 C   0  0  0  0  0  0  0  0  0  0  0  0
   81.5062   57.8881   19.9685 C   0  0  0  0  0  0  0  0  0  0  0  0
   80.6523   54.4151   20.7932 C   0  0  0  0  0  0  0  0  0  0  0  0
   79.3509   54.4892   21.2683 C   0  0  0  0  0  0  0  0  0  0  0  0
   78.7016   55.7174   21.3631 C   0  0  0  0  0  0  0  0  0  0  0  0
   78.8030   57.8442   21.0205 H   0  0  0  0  0  0  0  0  0  0  0  0
   83.7051   58.9023   19.0547 H   0  0  0  0  0  0  0  0  0  0  0  0
   84.6552   57.2397   15.6837 H   0  0  0  0  0  0  0  0  0  0  0  0
   87.2675   57.7583   18.8605 H   0  0  0  0  0  0  0  0  0  0  0  0
   86.2067   59.1300   18.5021 H   0  0  0  0  0  0  0  0  0  0  0  0
   85.3327   56.3311   19.3475 H   0  0  0  0  0  0  0  0  0  0  0  0
   85.3522   57.7175   20.4272 H   0  0  0  0  0  0  0  0  0  0  0  0
   81.0880   58.3556   19.0706 H   0  0  0  0  0  0  0  0  0  0  0  0
   81.7330   58.6351   20.7372 H   0  0  0  0  0  0  0  0  0  0  0  0
   81.1719   53.4665   20.7077 H   0  0  0  0  0  0  0  0  0  0  0  0
   78.8375   53.5821   21.5694 H   0  0  0  0  0  0  0  0  0  0  0  0
   77.6914   55.7576   21.7560 H   0  0  0  0  0  0  0  0  0  0  0  0
  1 19  1  0  0  0  0
  1 18  2  0  0  0  0
  1  2  1  0  0  0  0
  2  3  2  0  0  0  0
  2 15  1  0  0  0  0
  3 16  1  0  0  0  0
  3  4  1  0  0  0  0
  4  6  1  0  0  0  0
  4  5  2  0  0  0  0
  6 15  1  0  0  0  0
  7  6  1  0  0  0  0
  7 20  1  0  0  0  0
  7  8  1  0  0  0  0
  7 14  1  0  0  0  0
  8  9  2  0  0  0  0
  8 10  1  0  0  0  0
 10 21  1  0  0  0  0
 10 11  1  0  0  0  0
 11 12  2  0  0  0  0
 11 13  1  0  0  0  0
 13 22  1  0  0  0  0
 13 23  1  0  0  0  0
 13 14  1  0  0  0  0
 14 24  1  0  0  0  0
 14 25  1  0  0  0  0
 15 26  1  0  0  0  0
 15 27  1  0  0  0  0
 16 17  2  0  0  0  0
 16 28  1  0  0  0  0
 17 18  1  0  0  0  0
 17 29  1  0  0  0  0
 18 30  1  0  0  0  0
M  ZZC   1 c1
M  ZZC   2 c2
M  ZZC   3 c3
M  ZZC   4 c4
M  ZZC   5 o1
M  ZZC   6 n1
M  ZZC   7 c5
M  ZZC   8 c6
M  ZZC   9 o2
M  ZZC  10 n2
M  ZZC  11 c7
M  ZZC  12 o3
M  ZZC  13 c8
M  ZZC  14 c9
M  ZZC  15 c10
M  ZZC  16 c11
M  ZZC  17 c12
M  ZZC  18 c13
M  ZZC  19 h11
M  ZZC  20 h51
M  ZZC  21 h21
M  ZZC  22 h81
M  ZZC  23 h82
M  ZZC  24 h91
M  ZZC  25 h92
M  ZZC  26 h101
M  ZZC  27 h102
M  ZZC  28 h111
M  ZZC  29 h121
M  ZZC  30 h131
M  ZZM   1 37
M  ZZI   1 125
M  ZZM   2 37
M  ZZI   2 124
M  ZZM   3 37
M  ZZI   3 124
M  ZZM   4 3
M  ZZI   4 121
M  ZZM   5 7
M  ZZI   5 81
M  ZZM   6 10
M  ZZI   6 192
M  ZZM   7 1
M  ZZI   7 113
M  ZZM   8 3
M  ZZI   8 121
M  ZZM   9 7
M  ZZI   9 81
M  ZZM  10 10
M  ZZI  10 191
M  ZZM  11 3
M  ZZI  11 121
M  ZZM  12 7
M  ZZI  12 81
M  ZZM  13 1
M  ZZI  13 112
M  ZZM  14 1
M  ZZI  14 112
M  ZZM  15 1
M  ZZI  15 112
M  ZZM  16 37
M  ZZI  16 125
M  ZZM  17 37
M  ZZI  17 125
M  ZZM  18 37
M  ZZI  18 125
M  ZZM  19 5
M  ZZI  19 1
M  ZZM  20 5
M  ZZI  20 1
M  ZZM  21 28
M  ZZI  21 11
M  ZZM  22 5
M  ZZI  22 1
M  ZZM  23 5
M  ZZI  23 1
M  ZZM  24 5
M  ZZI  24 1
M  ZZM  25 5
M  ZZI  25 1
M  ZZM  26 5
M  ZZI  26 1
M  ZZM  27 5
M  ZZI  27 1
M  ZZM  28 5
M  ZZI  28 1
M  ZZM  29 5
M  ZZI  29 1
M  ZZM  30 5
M  ZZI  30 1
M  END
> <IX>
1

> <NAME>
Cereblon_6QJU_2.pdb

> <Score>
-14.433346

> <Natom>
30

> <Nflex>
1

> <Hbond>
-3.479864

> <Hphob>
-3.274823

> <VwInt>
-18.345573

> <Dsolv>
10.119214

> <SolEl>
7.332455

> <Eintl>
3.135975

> <RecConf>
ND

> <projPath>
Cereblon_maps/

> <NAME_>
Cereblon_6QJU_2.pdb

$$$$
