Cereblon_1EJ1_6.pdb
  MOLSOFT 04032206183D

 30 32  0  0  1  0  0  0  0  0999 V2000
   75.6979   37.9191   39.7522 C   0  0  0  0  0  0  0  0  0  0  0  0
   74.9986   39.0154   39.2767 C   0  0  0  0  0  0  0  0  0  0  0  0
   75.3083   40.2681   39.7242 C   0  0  0  0  0  0  0  0  0  0  0  0
   74.4180   41.2246   39.0644 C   0  0  0  0  0  0  0  0  0  0  0  0
   74.4213   42.4202   39.3149 O   0  0  0  0  0  0  0  0  0  0  0  0
   73.6415   40.5005   38.1723 N   0  0  0  0  0  0  0  0  0  0  0  0
   72.6088   41.0204   37.2604 C   0  0  1  0  0  0  0  0  0  0  0  0
   71.2888   41.2506   37.9949 C   0  0  0  0  0  0  0  0  0  0  0  0
   70.9272   40.5788   38.9502 O   0  0  0  0  0  0  0  0  0  0  0  0
   70.4559   42.2047   37.4570 N   0  0  0  0  0  0  0  0  0  0  0  0
   70.6643   43.0234   36.3794 C   0  0  0  0  0  0  0  0  0  0  0  0
   69.8635   43.8958   36.0788 O   0  0  0  0  0  0  0  0  0  0  0  0
   71.9208   42.7510   35.5923 C   0  0  0  0  0  0  0  0  0  0  0  0
   73.0402   42.2770   36.5048 C   0  0  0  0  0  0  0  0  0  0  0  0
   73.8893   39.0731   38.2880 C   0  0  0  0  0  0  0  0  0  0  0  0
   76.3143   40.5188   40.6395 C   0  0  0  0  0  0  0  0  0  0  0  0
   77.0177   39.4245   41.1191 C   0  0  0  0  0  0  0  0  0  0  0  0
   76.7109   38.1402   40.6781 C   0  0  0  0  0  0  0  0  0  0  0  0
   75.4715   36.9139   39.4105 H   0  0  0  0  0  0  0  0  0  0  0  0
   72.4146   40.2332   36.5225 H   0  0  0  0  0  0  0  0  0  0  0  0
   69.5864   42.3602   37.9459 H   0  0  0  0  0  0  0  0  0  0  0  0
   71.6943   42.0067   34.8214 H   0  0  0  0  0  0  0  0  0  0  0  0
   72.2183   43.6762   35.0945 H   0  0  0  0  0  0  0  0  0  0  0  0
   73.9410   42.0743   35.9166 H   0  0  0  0  0  0  0  0  0  0  0  0
   73.2962   43.0843   37.1966 H   0  0  0  0  0  0  0  0  0  0  0  0
   74.1823   38.6667   37.3143 H   0  0  0  0  0  0  0  0  0  0  0  0
   72.9892   38.5755   38.6648 H   0  0  0  0  0  0  0  0  0  0  0  0
   76.5538   41.5267   40.9628 H   0  0  0  0  0  0  0  0  0  0  0  0
   77.8152   39.5728   41.8408 H   0  0  0  0  0  0  0  0  0  0  0  0
   77.2758   37.2969   41.0624 H   0  0  0  0  0  0  0  0  0  0  0  0
  1 19  1  0  0  0  0
  1 18  2  0  0  0  0
  1  2  1  0  0  0  0
  2  3  2  0  0  0  0
  2 15  1  0  0  0  0
  3 16  1  0  0  0  0
  3  4  1  0  0  0  0
  4  6  1  0  0  0  0
  4  5  2  0  0  0  0
  6 15  1  0  0  0  0
  7  6  1  0  0  0  0
  7 20  1  0  0  0  0
  7  8  1  0  0  0  0
  7 14  1  0  0  0  0
  8  9  2  0  0  0  0
  8 10  1  0  0  0  0
 10 21  1  0  0  0  0
 10 11  1  0  0  0  0
 11 12  2  0  0  0  0
 11 13  1  0  0  0  0
 13 22  1  0  0  0  0
 13 23  1  0  0  0  0
 13 14  1  0  0  0  0
 14 24  1  0  0  0  0
 14 25  1  0  0  0  0
 15 26  1  0  0  0  0
 15 27  1  0  0  0  0
 16 17  2  0  0  0  0
 16 28  1  0  0  0  0
 17 18  1  0  0  0  0
 17 29  1  0  0  0  0
 18 30  1  0  0  0  0
M  ZZC   1 c1
M  ZZC   2 c2
M  ZZC   3 c3
M  ZZC   4 c4
M  ZZC   5 o1
M  ZZC   6 n1
M  ZZC   7 c5
M  ZZC   8 c6
M  ZZC   9 o2
M  ZZC  10 n2
M  ZZC  11 c7
M  ZZC  12 o3
M  ZZC  13 c8
M  ZZC  14 c9
M  ZZC  15 c10
M  ZZC  16 c11
M  ZZC  17 c12
M  ZZC  18 c13
M  ZZC  19 h11
M  ZZC  20 h51
M  ZZC  21 h21
M  ZZC  22 h81
M  ZZC  23 h82
M  ZZC  24 h91
M  ZZC  25 h92
M  ZZC  26 h101
M  ZZC  27 h102
M  ZZC  28 h111
M  ZZC  29 h121
M  ZZC  30 h131
M  ZZM   1 37
M  ZZI   1 125
M  ZZM   2 37
M  ZZI   2 124
M  ZZM   3 37
M  ZZI   3 124
M  ZZM   4 3
M  ZZI   4 121
M  ZZM   5 7
M  ZZI   5 81
M  ZZM   6 10
M  ZZI   6 192
M  ZZM   7 1
M  ZZI   7 113
M  ZZM   8 3
M  ZZI   8 121
M  ZZM   9 7
M  ZZI   9 81
M  ZZM  10 10
M  ZZI  10 191
M  ZZM  11 3
M  ZZI  11 121
M  ZZM  12 7
M  ZZI  12 81
M  ZZM  13 1
M  ZZI  13 112
M  ZZM  14 1
M  ZZI  14 112
M  ZZM  15 1
M  ZZI  15 112
M  ZZM  16 37
M  ZZI  16 125
M  ZZM  17 37
M  ZZI  17 125
M  ZZM  18 37
M  ZZI  18 125
M  ZZM  19 5
M  ZZI  19 1
M  ZZM  20 5
M  ZZI  20 1
M  ZZM  21 28
M  ZZI  21 11
M  ZZM  22 5
M  ZZI  22 1
M  ZZM  23 5
M  ZZI  23 1
M  ZZM  24 5
M  ZZI  24 1
M  ZZM  25 5
M  ZZI  25 1
M  ZZM  26 5
M  ZZI  26 1
M  ZZM  27 5
M  ZZI  27 1
M  ZZM  28 5
M  ZZI  28 1
M  ZZM  29 5
M  ZZI  29 1
M  ZZM  30 5
M  ZZI  30 1
M  END
> <IX>
1

> <NAME>
Cereblon_1EJ1_6.pdb

> <Score>
-20.729557

> <Natom>
30

> <Nflex>
1

> <Hbond>
-4.616909

> <Hphob>
-3.633728

> <VwInt>
-21.947161

> <Dsolv>
13.297975

> <SolEl>
5.655136

> <Eintl>
1.711852

> <RecConf>
ND

> <projPath>
Cereblon_maps/

> <NAME_>
Cereblon_1EJ1_6.pdb

$$$$
