Cereblon_5J8O_10.pdb
  MOLSOFT 04032206253D

 29 31  0  0  1  0  0  0  0  0999 V2000
   78.9948   42.4803   42.6752 C   0  0  0  0  0  0  0  0  0  0  0  0
   78.1782   42.1885   41.5973 C   0  0  0  0  0  0  0  0  0  0  0  0
   77.2636   41.0691   41.4068 C   0  0  0  0  0  0  0  0  0  0  0  0
   77.0849   40.2050   42.2514 O   0  0  0  0  0  0  0  0  0  0  0  0
   76.7211   41.2162   40.1436 N   0  0  0  0  0  0  0  0  0  0  0  0
   77.2186   42.3443   39.5232 C   0  0  0  0  0  0  0  0  0  0  0  0
   76.9855   42.7645   38.3972 O   0  0  0  0  0  0  0  0  0  0  0  0
   78.1526   42.9537   40.4705 C   0  0  0  0  0  0  0  0  0  0  0  0
   78.9520   44.0701   40.3324 C   0  0  0  0  0  0  0  0  0  0  0  0
   79.7924   44.3772   41.3968 C   0  0  0  0  0  0  0  0  0  0  0  0
   79.8144   43.5956   42.5526 C   0  0  0  0  0  0  0  0  0  0  0  0
   75.7112   40.3644   39.5095 C   0  0  2  0  0  0  0  0  0  0  0  0
   74.3321   40.9363   39.7968 C   0  0  0  0  0  0  0  0  0  0  0  0
   74.1481   42.1225   40.0137 O   0  0  0  0  0  0  0  0  0  0  0  0
   73.2794   40.0575   39.7162 N   0  0  0  0  0  0  0  0  0  0  0  0
   73.3147   38.7122   39.4419 C   0  0  0  0  0  0  0  0  0  0  0  0
   72.2975   38.0414   39.3800 O   0  0  0  0  0  0  0  0  0  0  0  0
   74.6788   38.1277   39.1687 C   0  0  0  0  0  0  0  0  0  0  0  0
   75.7602   38.8935   39.9104 C   0  0  0  0  0  0  0  0  0  0  0  0
   79.0017   41.8644   43.5702 H   0  0  0  0  0  0  0  0  0  0  0  0
   78.9234   44.6737   39.4330 H   0  0  0  0  0  0  0  0  0  0  0  0
   80.4419   45.2424   41.3297 H   0  0  0  0  0  0  0  0  0  0  0  0
   80.4809   43.8621   43.3679 H   0  0  0  0  0  0  0  0  0  0  0  0
   75.8526   40.4525   38.4303 H   0  0  0  0  0  0  0  0  0  0  0  0
   72.3617   40.4531   39.8786 H   0  0  0  0  0  0  0  0  0  0  0  0
   74.6814   37.0817   39.4916 H   0  0  0  0  0  0  0  0  0  0  0  0
   74.8442   38.1509   38.0872 H   0  0  0  0  0  0  0  0  0  0  0  0
   76.7453   38.4688   39.6910 H   0  0  0  0  0  0  0  0  0  0  0  0
   75.5921   38.7744   40.9845 H   0  0  0  0  0  0  0  0  0  0  0  0
  1 20  1  0  0  0  0
  1  2  1  0  0  0  0
  1 11  2  0  0  0  0
  2  3  1  0  0  0  0
  2  8  2  0  0  0  0
  3  4  2  0  0  0  0
  3  5  1  0  0  0  0
  5  6  1  0  0  0  0
 12  5  1  0  0  0  0
  6  7  2  0  0  0  0
  6  8  1  0  0  0  0
  8  9  1  0  0  0  0
  9 21  1  0  0  0  0
  9 10  2  0  0  0  0
 10 22  1  0  0  0  0
 10 11  1  0  0  0  0
 11 23  1  0  0  0  0
 12 24  1  0  0  0  0
 12 13  1  0  0  0  0
 12 19  1  0  0  0  0
 13 14  2  0  0  0  0
 13 15  1  0  0  0  0
 15 25  1  0  0  0  0
 15 16  1  0  0  0  0
 16 17  2  0  0  0  0
 16 18  1  0  0  0  0
 18 26  1  0  0  0  0
 18 27  1  0  0  0  0
 18 19  1  0  0  0  0
 19 28  1  0  0  0  0
 19 29  1  0  0  0  0
M  ZZC   1 c1
M  ZZC   2 c2
M  ZZC   3 c3
M  ZZC   4 o1
M  ZZC   5 n1
M  ZZC   6 c4
M  ZZC   7 o2
M  ZZC   8 c5
M  ZZC   9 c6
M  ZZC  10 c7
M  ZZC  11 c8
M  ZZC  12 c9
M  ZZC  13 c10
M  ZZC  14 o3
M  ZZC  15 n2
M  ZZC  16 c11
M  ZZC  17 o4
M  ZZC  18 c12
M  ZZC  19 c13
M  ZZC  20 h11
M  ZZC  21 h61
M  ZZC  22 h71
M  ZZC  23 h81
M  ZZC  24 h91
M  ZZC  25 h21
M  ZZC  26 h121
M  ZZC  27 h122
M  ZZC  28 h131
M  ZZC  29 h132
M  ZZM   1 37
M  ZZI   1 125
M  ZZM   2 37
M  ZZI   2 124
M  ZZM   3 3
M  ZZI   3 121
M  ZZM   4 7
M  ZZI   4 81
M  ZZM   5 10
M  ZZI   5 192
M  ZZM   6 3
M  ZZI   6 121
M  ZZM   7 7
M  ZZI   7 81
M  ZZM   8 37
M  ZZI   8 124
M  ZZM   9 37
M  ZZI   9 125
M  ZZM  10 37
M  ZZI  10 125
M  ZZM  11 37
M  ZZI  11 125
M  ZZM  12 1
M  ZZI  12 113
M  ZZM  13 3
M  ZZI  13 121
M  ZZM  14 7
M  ZZI  14 81
M  ZZM  15 10
M  ZZI  15 191
M  ZZM  16 3
M  ZZI  16 121
M  ZZM  17 7
M  ZZI  17 81
M  ZZM  18 1
M  ZZI  18 112
M  ZZM  19 1
M  ZZI  19 112
M  ZZM  20 5
M  ZZI  20 1
M  ZZM  21 5
M  ZZI  21 1
M  ZZM  22 5
M  ZZI  22 1
M  ZZM  23 5
M  ZZI  23 1
M  ZZM  24 5
M  ZZI  24 1
M  ZZM  25 28
M  ZZI  25 11
M  ZZM  26 5
M  ZZI  26 1
M  ZZM  27 5
M  ZZI  27 1
M  ZZM  28 5
M  ZZI  28 1
M  ZZM  29 5
M  ZZI  29 1
M  END
> <IX>
1

> <NAME>
Cereblon_5J8O_10.pdb

> <Score>
-19.263084

> <Natom>
29

> <Nflex>
1

> <Hbond>
-3.368881

> <Hphob>
-3.549758

> <VwInt>
-22.724832

> <Dsolv>
12.050045

> <SolEl>
5.782319

> <Eintl>
1.515816

> <RecConf>
ND

> <projPath>
Cereblon_maps/

> <NAME_>
Cereblon_5J8O_10.pdb

$$$$
