Cereblon_6NUQ_1.pdb
  MOLSOFT 04032206283D

 30 32  0  0  1  0  0  0  0  0999 V2000
   75.7025   37.9225   39.7452 C   0  0  0  0  0  0  0  0  0  0  0  0
   74.9956   39.0144   39.2747 C   0  0  0  0  0  0  0  0  0  0  0  0
   75.2984   40.2687   39.7241 C   0  0  0  0  0  0  0  0  0  0  0  0
   74.4010   41.2200   39.0682 C   0  0  0  0  0  0  0  0  0  0  0  0
   74.4053   42.4173   39.3111 O   0  0  0  0  0  0  0  0  0  0  0  0
   73.6202   40.4912   38.1835 N   0  0  0  0  0  0  0  0  0  0  0  0
   72.5893   41.0079   37.2684 C   0  0  1  0  0  0  0  0  0  0  0  0
   71.2726   41.2550   38.0028 C   0  0  0  0  0  0  0  0  0  0  0  0
   70.9092   40.5979   38.9677 O   0  0  0  0  0  0  0  0  0  0  0  0
   70.4469   42.2114   37.4570 N   0  0  0  0  0  0  0  0  0  0  0  0
   70.6571   43.0137   36.3670 C   0  0  0  0  0  0  0  0  0  0  0  0
   69.8563   43.8812   36.0532 O   0  0  0  0  0  0  0  0  0  0  0  0
   71.9107   42.7252   35.5809 C   0  0  0  0  0  0  0  0  0  0  0  0
   73.0281   42.2519   36.4967 C   0  0  0  0  0  0  0  0  0  0  0  0
   73.8843   39.0664   38.2882 C   0  0  0  0  0  0  0  0  0  0  0  0
   76.3048   40.5236   40.6381 C   0  0  0  0  0  0  0  0  0  0  0  0
   77.0163   39.4321   41.1138 C   0  0  0  0  0  0  0  0  0  0  0  0
   76.7164   38.1466   40.6698 C   0  0  0  0  0  0  0  0  0  0  0  0
   75.4814   36.9166   39.4022 H   0  0  0  0  0  0  0  0  0  0  0  0
   72.3880   40.2124   36.5412 H   0  0  0  0  0  0  0  0  0  0  0  0
   69.5769   42.3734   37.9429 H   0  0  0  0  0  0  0  0  0  0  0  0
   71.6779   41.9738   34.8187 H   0  0  0  0  0  0  0  0  0  0  0  0
   72.2134   43.6433   35.0731 H   0  0  0  0  0  0  0  0  0  0  0  0
   73.9250   42.0313   35.9091 H   0  0  0  0  0  0  0  0  0  0  0  0
   73.2905   43.0649   37.1796 H   0  0  0  0  0  0  0  0  0  0  0  0
   74.1812   38.6698   37.3117 H   0  0  0  0  0  0  0  0  0  0  0  0
   72.9896   38.5554   38.6602 H   0  0  0  0  0  0  0  0  0  0  0  0
   76.5372   41.5319   40.9653 H   0  0  0  0  0  0  0  0  0  0  0  0
   77.8140   39.5836   41.8346 H   0  0  0  0  0  0  0  0  0  0  0  0
   77.2883   37.3059   41.0496 H   0  0  0  0  0  0  0  0  0  0  0  0
  1 19  1  0  0  0  0
  1 18  2  0  0  0  0
  1  2  1  0  0  0  0
  2  3  2  0  0  0  0
  2 15  1  0  0  0  0
  3 16  1  0  0  0  0
  3  4  1  0  0  0  0
  4  6  1  0  0  0  0
  4  5  2  0  0  0  0
  6 15  1  0  0  0  0
  7  6  1  0  0  0  0
  7 20  1  0  0  0  0
  7  8  1  0  0  0  0
  7 14  1  0  0  0  0
  8  9  2  0  0  0  0
  8 10  1  0  0  0  0
 10 21  1  0  0  0  0
 10 11  1  0  0  0  0
 11 12  2  0  0  0  0
 11 13  1  0  0  0  0
 13 22  1  0  0  0  0
 13 23  1  0  0  0  0
 13 14  1  0  0  0  0
 14 24  1  0  0  0  0
 14 25  1  0  0  0  0
 15 26  1  0  0  0  0
 15 27  1  0  0  0  0
 16 17  2  0  0  0  0
 16 28  1  0  0  0  0
 17 18  1  0  0  0  0
 17 29  1  0  0  0  0
 18 30  1  0  0  0  0
M  ZZC   1 c1
M  ZZC   2 c2
M  ZZC   3 c3
M  ZZC   4 c4
M  ZZC   5 o1
M  ZZC   6 n1
M  ZZC   7 c5
M  ZZC   8 c6
M  ZZC   9 o2
M  ZZC  10 n2
M  ZZC  11 c7
M  ZZC  12 o3
M  ZZC  13 c8
M  ZZC  14 c9
M  ZZC  15 c10
M  ZZC  16 c11
M  ZZC  17 c12
M  ZZC  18 c13
M  ZZC  19 h11
M  ZZC  20 h51
M  ZZC  21 h21
M  ZZC  22 h81
M  ZZC  23 h82
M  ZZC  24 h91
M  ZZC  25 h92
M  ZZC  26 h101
M  ZZC  27 h102
M  ZZC  28 h111
M  ZZC  29 h121
M  ZZC  30 h131
M  ZZM   1 37
M  ZZI   1 125
M  ZZM   2 37
M  ZZI   2 124
M  ZZM   3 37
M  ZZI   3 124
M  ZZM   4 3
M  ZZI   4 121
M  ZZM   5 7
M  ZZI   5 81
M  ZZM   6 10
M  ZZI   6 192
M  ZZM   7 1
M  ZZI   7 113
M  ZZM   8 3
M  ZZI   8 121
M  ZZM   9 7
M  ZZI   9 81
M  ZZM  10 10
M  ZZI  10 191
M  ZZM  11 3
M  ZZI  11 121
M  ZZM  12 7
M  ZZI  12 81
M  ZZM  13 1
M  ZZI  13 112
M  ZZM  14 1
M  ZZI  14 112
M  ZZM  15 1
M  ZZI  15 112
M  ZZM  16 37
M  ZZI  16 125
M  ZZM  17 37
M  ZZI  17 125
M  ZZM  18 37
M  ZZI  18 125
M  ZZM  19 5
M  ZZI  19 1
M  ZZM  20 5
M  ZZI  20 1
M  ZZM  21 28
M  ZZI  21 11
M  ZZM  22 5
M  ZZI  22 1
M  ZZM  23 5
M  ZZI  23 1
M  ZZM  24 5
M  ZZI  24 1
M  ZZM  25 5
M  ZZI  25 1
M  ZZM  26 5
M  ZZI  26 1
M  ZZM  27 5
M  ZZI  27 1
M  ZZM  28 5
M  ZZI  28 1
M  ZZM  29 5
M  ZZI  29 1
M  ZZM  30 5
M  ZZI  30 1
M  END
> <IX>
1

> <NAME>
Cereblon_6NUQ_1.pdb

> <Score>
-20.300802

> <Natom>
30

> <Nflex>
1

> <Hbond>
-4.550891

> <Hphob>
-3.616389

> <VwInt>
-22.223903

> <Dsolv>
13.234144

> <SolEl>
6.588269

> <Eintl>
1.643282

> <RecConf>
ND

> <projPath>
Cereblon_maps/

> <NAME_>
Cereblon_6NUQ_1.pdb

$$$$
