Cereblon_2EUF_12.pdb
  MOLSOFT 04032206193D

 29 31  0  0  1  0  0  0  0  0999 V2000
   78.9955   42.4792   42.6752 C   0  0  0  0  0  0  0  0  0  0  0  0
   78.1781   42.1888   41.5976 C   0  0  0  0  0  0  0  0  0  0  0  0
   77.2615   41.0709   41.4080 C   0  0  0  0  0  0  0  0  0  0  0  0
   77.0833   40.2062   42.2521 O   0  0  0  0  0  0  0  0  0  0  0  0
   76.7203   41.2178   40.1441 N   0  0  0  0  0  0  0  0  0  0  0  0
   77.2193   42.3449   39.5231 C   0  0  0  0  0  0  0  0  0  0  0  0
   76.9867   42.7643   38.3967 O   0  0  0  0  0  0  0  0  0  0  0  0
   78.1535   42.9540   40.4704 C   0  0  0  0  0  0  0  0  0  0  0  0
   78.9543   44.0695   40.3323 C   0  0  0  0  0  0  0  0  0  0  0  0
   79.7959   44.3749   41.3962 C   0  0  0  0  0  0  0  0  0  0  0  0
   79.8171   43.5934   42.5521 C   0  0  0  0  0  0  0  0  0  0  0  0
   75.7123   40.3646   39.5088 C   0  0  2  0  0  0  0  0  0  0  0  0
   74.3326   40.9353   39.7956 C   0  0  0  0  0  0  0  0  0  0  0  0
   74.1476   42.1213   40.0125 O   0  0  0  0  0  0  0  0  0  0  0  0
   73.2811   40.0551   39.7162 N   0  0  0  0  0  0  0  0  0  0  0  0
   73.3176   38.7101   39.4408 C   0  0  0  0  0  0  0  0  0  0  0  0
   72.3008   38.0388   39.3769 O   0  0  0  0  0  0  0  0  0  0  0  0
   74.6824   38.1265   39.1681 C   0  0  0  0  0  0  0  0  0  0  0  0
   75.7632   38.8940   39.9091 C   0  0  0  0  0  0  0  0  0  0  0  0
   79.0003   41.8627   43.5698 H   0  0  0  0  0  0  0  0  0  0  0  0
   78.9275   44.6724   39.4324 H   0  0  0  0  0  0  0  0  0  0  0  0
   80.4476   45.2383   41.3284 H   0  0  0  0  0  0  0  0  0  0  0  0
   80.4845   43.8587   43.3671 H   0  0  0  0  0  0  0  0  0  0  0  0
   75.8540   40.4537   38.4297 H   0  0  0  0  0  0  0  0  0  0  0  0
   72.3630   40.4503   39.8773 H   0  0  0  0  0  0  0  0  0  0  0  0
   74.6854   37.0807   39.4914 H   0  0  0  0  0  0  0  0  0  0  0  0
   74.8473   38.1485   38.0865 H   0  0  0  0  0  0  0  0  0  0  0  0
   75.5963   38.7734   40.9831 H   0  0  0  0  0  0  0  0  0  0  0  0
   76.7488   38.4706   39.6898 H   0  0  0  0  0  0  0  0  0  0  0  0
  1 20  1  0  0  0  0
  1  2  1  0  0  0  0
  1 11  2  0  0  0  0
  2  3  1  0  0  0  0
  2  8  2  0  0  0  0
  3  4  2  0  0  0  0
  3  5  1  0  0  0  0
  5  6  1  0  0  0  0
 12  5  1  0  0  0  0
  6  7  2  0  0  0  0
  6  8  1  0  0  0  0
  8  9  1  0  0  0  0
  9 21  1  0  0  0  0
  9 10  2  0  0  0  0
 10 22  1  0  0  0  0
 10 11  1  0  0  0  0
 11 23  1  0  0  0  0
 12 24  1  0  0  0  0
 12 13  1  0  0  0  0
 12 19  1  0  0  0  0
 13 14  2  0  0  0  0
 13 15  1  0  0  0  0
 15 25  1  0  0  0  0
 15 16  1  0  0  0  0
 16 17  2  0  0  0  0
 16 18  1  0  0  0  0
 18 26  1  0  0  0  0
 18 27  1  0  0  0  0
 18 19  1  0  0  0  0
 19 28  1  0  0  0  0
 19 29  1  0  0  0  0
M  ZZC   1 c1
M  ZZC   2 c2
M  ZZC   3 c3
M  ZZC   4 o1
M  ZZC   5 n1
M  ZZC   6 c4
M  ZZC   7 o2
M  ZZC   8 c5
M  ZZC   9 c6
M  ZZC  10 c7
M  ZZC  11 c8
M  ZZC  12 c9
M  ZZC  13 c10
M  ZZC  14 o3
M  ZZC  15 n2
M  ZZC  16 c11
M  ZZC  17 o4
M  ZZC  18 c12
M  ZZC  19 c13
M  ZZC  20 h11
M  ZZC  21 h61
M  ZZC  22 h71
M  ZZC  23 h81
M  ZZC  24 h91
M  ZZC  25 h21
M  ZZC  26 h121
M  ZZC  27 h122
M  ZZC  28 h131
M  ZZC  29 h132
M  ZZM   1 37
M  ZZI   1 125
M  ZZM   2 37
M  ZZI   2 124
M  ZZM   3 3
M  ZZI   3 121
M  ZZM   4 7
M  ZZI   4 81
M  ZZM   5 10
M  ZZI   5 192
M  ZZM   6 3
M  ZZI   6 121
M  ZZM   7 7
M  ZZI   7 81
M  ZZM   8 37
M  ZZI   8 124
M  ZZM   9 37
M  ZZI   9 125
M  ZZM  10 37
M  ZZI  10 125
M  ZZM  11 37
M  ZZI  11 125
M  ZZM  12 1
M  ZZI  12 113
M  ZZM  13 3
M  ZZI  13 121
M  ZZM  14 7
M  ZZI  14 81
M  ZZM  15 10
M  ZZI  15 191
M  ZZM  16 3
M  ZZI  16 121
M  ZZM  17 7
M  ZZI  17 81
M  ZZM  18 1
M  ZZI  18 112
M  ZZM  19 1
M  ZZI  19 112
M  ZZM  20 5
M  ZZI  20 1
M  ZZM  21 5
M  ZZI  21 1
M  ZZM  22 5
M  ZZI  22 1
M  ZZM  23 5
M  ZZI  23 1
M  ZZM  24 5
M  ZZI  24 1
M  ZZM  25 28
M  ZZI  25 11
M  ZZM  26 5
M  ZZI  26 1
M  ZZM  27 5
M  ZZI  27 1
M  ZZM  28 5
M  ZZI  28 1
M  ZZM  29 5
M  ZZI  29 1
M  END
> <IX>
1

> <NAME>
Cereblon_2EUF_12.pdb

> <Score>
-19.451464

> <Natom>
29

> <Nflex>
1

> <Hbond>
-3.373298

> <Hphob>
-3.571547

> <VwInt>
-22.723791

> <Dsolv>
12.065315

> <SolEl>
5.518279

> <Eintl>
1.514431

> <RecConf>
ND

> <projPath>
Cereblon_maps/

> <NAME_>
Cereblon_2EUF_12.pdb

$$$$
