Cereblon_3K6P_18.pdb
  MOLSOFT 04032206213D

 31 33  0  0  1  0  0  0  0  0999 V2000
   78.0716   40.6233   42.6744 N   0  0  0  0  0  0  0  0  0  0  0  0
   78.1296   41.7175   41.7961 C   0  0  0  0  0  0  0  0  0  0  0  0
   77.3078   41.8183   40.6821 C   0  0  0  0  0  0  0  0  0  0  0  0
   76.2399   40.9333   40.2222 C   0  0  0  0  0  0  0  0  0  0  0  0
   75.9858   39.8454   40.7198 O   0  0  0  0  0  0  0  0  0  0  0  0
   75.6260   41.5688   39.1587 N   0  0  0  0  0  0  0  0  0  0  0  0
   76.3565   42.6787   38.7848 C   0  0  0  0  0  0  0  0  0  0  0  0
   76.2586   43.3835   37.7916 O   0  0  0  0  0  0  0  0  0  0  0  0
   77.3893   42.8568   39.8053 C   0  0  0  0  0  0  0  0  0  0  0  0
   78.3335   43.8581   39.9413 C   0  0  0  0  0  0  0  0  0  0  0  0
   79.1959   43.7664   41.0259 C   0  0  0  0  0  0  0  0  0  0  0  0
   79.0914   42.7155   41.9386 C   0  0  0  0  0  0  0  0  0  0  0  0
   74.3822   41.0588   38.5532 C   0  0  1  0  0  0  0  0  0  0  0  0
   73.2381   41.3286   39.5211 C   0  0  0  0  0  0  0  0  0  0  0  0
   73.4076   41.6088   40.6953 O   0  0  0  0  0  0  0  0  0  0  0  0
   71.9716   41.1836   39.0140 N   0  0  0  0  0  0  0  0  0  0  0  0
   71.6019   40.9477   37.7154 C   0  0  0  0  0  0  0  0  0  0  0  0
   70.4419   40.7031   37.4213 O   0  0  0  0  0  0  0  0  0  0  0  0
   72.7245   40.9522   36.6986 C   0  0  0  0  0  0  0  0  0  0  0  0
   73.9578   41.6780   37.2210 C   0  0  0  0  0  0  0  0  0  0  0  0
   78.6463   40.6086   43.5158 H   0  0  0  0  0  0  0  0  0  0  0  0
   77.2703   39.9930   42.6164 H   0  0  0  0  0  0  0  0  0  0  0  0
   78.3975   44.6793   39.2358 H   0  0  0  0  0  0  0  0  0  0  0  0
   79.9552   44.5284   41.1721 H   0  0  0  0  0  0  0  0  0  0  0  0
   79.7783   42.6796   42.7784 H   0  0  0  0  0  0  0  0  0  0  0  0
   74.4815   39.9702   38.4686 H   0  0  0  0  0  0  0  0  0  0  0  0
   71.2162   41.2779   39.6803 H   0  0  0  0  0  0  0  0  0  0  0  0
   72.9636   39.9128   36.4502 H   0  0  0  0  0  0  0  0  0  0  0  0
   72.3666   41.4442   35.7883 H   0  0  0  0  0  0  0  0  0  0  0  0
   74.7568   41.6258   36.4802 H   0  0  0  0  0  0  0  0  0  0  0  0
   73.7237   42.7415   37.3491 H   0  0  0  0  0  0  0  0  0  0  0  0
  1  2  1  0  0  0  0
  1 21  1  0  0  0  0
  1 22  1  0  0  0  0
  2  3  1  0  0  0  0
  2 12  2  0  0  0  0
  3  9  2  0  0  0  0
  3  4  1  0  0  0  0
  4  5  2  0  0  0  0
  4  6  1  0  0  0  0
  6  7  1  0  0  0  0
 13  6  1  0  0  0  0
  7  8  2  0  0  0  0
  7  9  1  0  0  0  0
  9 10  1  0  0  0  0
 10 23  1  0  0  0  0
 10 11  2  0  0  0  0
 11 12  1  0  0  0  0
 11 24  1  0  0  0  0
 12 25  1  0  0  0  0
 13 26  1  0  0  0  0
 13 14  1  0  0  0  0
 13 20  1  0  0  0  0
 14 15  2  0  0  0  0
 14 16  1  0  0  0  0
 16 27  1  0  0  0  0
 16 17  1  0  0  0  0
 17 18  2  0  0  0  0
 17 19  1  0  0  0  0
 19 28  1  0  0  0  0
 19 29  1  0  0  0  0
 19 20  1  0  0  0  0
 20 30  1  0  0  0  0
 20 31  1  0  0  0  0
M  ZZC   1 n1
M  ZZC   2 c1
M  ZZC   3 c2
M  ZZC   4 c3
M  ZZC   5 o1
M  ZZC   6 n2
M  ZZC   7 c4
M  ZZC   8 o2
M  ZZC   9 c5
M  ZZC  10 c6
M  ZZC  11 c7
M  ZZC  12 c8
M  ZZC  13 c9
M  ZZC  14 c10
M  ZZC  15 o3
M  ZZC  16 n3
M  ZZC  17 c11
M  ZZC  18 o4
M  ZZC  19 c12
M  ZZC  20 c13
M  ZZC  21 h11
M  ZZC  22 h12
M  ZZC  23 h61
M  ZZC  24 h71
M  ZZC  25 h81
M  ZZC  26 h91
M  ZZC  27 h31
M  ZZC  28 h121
M  ZZC  29 h122
M  ZZC  30 h131
M  ZZC  31 h132
M  ZZM   1 40
M  ZZI   1 224
M  ZZM   2 37
M  ZZI   2 124
M  ZZM   3 37
M  ZZI   3 124
M  ZZM   4 3
M  ZZI   4 121
M  ZZM   5 7
M  ZZI   5 81
M  ZZM   6 10
M  ZZI   6 192
M  ZZM   7 3
M  ZZI   7 121
M  ZZM   8 7
M  ZZI   8 81
M  ZZM   9 37
M  ZZI   9 124
M  ZZM  10 37
M  ZZI  10 125
M  ZZM  11 37
M  ZZI  11 125
M  ZZM  12 37
M  ZZI  12 125
M  ZZM  13 1
M  ZZI  13 113
M  ZZM  14 3
M  ZZI  14 121
M  ZZM  15 7
M  ZZI  15 81
M  ZZM  16 10
M  ZZI  16 191
M  ZZM  17 3
M  ZZI  17 121
M  ZZM  18 7
M  ZZI  18 81
M  ZZM  19 1
M  ZZI  19 112
M  ZZM  20 1
M  ZZI  20 112
M  ZZM  21 28
M  ZZI  21 11
M  ZZM  22 28
M  ZZI  22 11
M  ZZM  23 5
M  ZZI  23 1
M  ZZM  24 5
M  ZZI  24 1
M  ZZM  25 5
M  ZZI  25 1
M  ZZM  26 5
M  ZZI  26 1
M  ZZM  27 28
M  ZZI  27 11
M  ZZM  28 5
M  ZZI  28 1
M  ZZM  29 5
M  ZZI  29 1
M  ZZM  30 5
M  ZZI  30 1
M  ZZM  31 5
M  ZZI  31 1
M  END
> <IX>
1

> <NAME>
Cereblon_3K6P_18.pdb

> <Score>
-14.180407

> <Natom>
31

> <Nflex>
1

> <Hbond>
-2.707168

> <Hphob>
-3.736913

> <VwInt>
-26.904349

> <Dsolv>
17.196752

> <SolEl>
7.672988

> <Eintl>
5.858457

> <RecConf>
ND

> <projPath>
Cereblon_maps/

> <NAME_>
Cereblon_3K6P_18.pdb

$$$$
