Cereblon_6XJK_5.pdb
  MOLSOFT 04032206293D

 30 32  0  0  1  0  0  0  0  0999 V2000
   77.4672   40.8594   42.0925 C   0  0  0  0  0  0  0  0  0  0  0  0
   76.8770   40.9765   40.8455 C   0  0  0  0  0  0  0  0  0  0  0  0
   77.1971   42.0234   40.0235 C   0  0  0  0  0  0  0  0  0  0  0  0
   76.3833   41.9155   38.8074 C   0  0  0  0  0  0  0  0  0  0  0  0
   76.4460   42.6776   37.8529 O   0  0  0  0  0  0  0  0  0  0  0  0
   75.5349   40.8398   38.9954 N   0  0  0  0  0  0  0  0  0  0  0  0
   74.2304   40.7436   38.3242 C   0  0  2  0  0  0  0  0  0  0  0  0
   73.2247   41.5113   39.1686 C   0  0  0  0  0  0  0  0  0  0  0  0
   73.5640   42.3424   39.9956 O   0  0  0  0  0  0  0  0  0  0  0  0
   71.9002   41.2524   38.9119 N   0  0  0  0  0  0  0  0  0  0  0  0
   71.3706   40.2767   38.1026 C   0  0  0  0  0  0  0  0  0  0  0  0
   70.1642   40.1668   37.9448 O   0  0  0  0  0  0  0  0  0  0  0  0
   72.3714   39.3910   37.3921 C   0  0  0  0  0  0  0  0  0  0  0  0
   73.6981   39.3265   38.1368 C   0  0  0  0  0  0  0  0  0  0  0  0
   75.8565   40.1082   40.2062 C   0  0  0  0  0  0  0  0  0  0  0  0
   78.1042   43.0079   40.3768 C   0  0  0  0  0  0  0  0  0  0  0  0
   78.7034   42.8906   41.6243 C   0  0  0  0  0  0  0  0  0  0  0  0
   78.3811   41.8333   42.4740 C   0  0  0  0  0  0  0  0  0  0  0  0
   77.2170   40.0412   42.7608 H   0  0  0  0  0  0  0  0  0  0  0  0
   74.2985   41.2703   37.3646 H   0  0  0  0  0  0  0  0  0  0  0  0
   71.2383   41.8470   39.3945 H   0  0  0  0  0  0  0  0  0  0  0  0
   71.9460   38.3858   37.3090 H   0  0  0  0  0  0  0  0  0  0  0  0
   72.5142   39.7830   36.3791 H   0  0  0  0  0  0  0  0  0  0  0  0
   73.5499   38.8382   39.1072 H   0  0  0  0  0  0  0  0  0  0  0  0
   74.4074   38.7074   37.5807 H   0  0  0  0  0  0  0  0  0  0  0  0
   76.2584   39.1253   39.9377 H   0  0  0  0  0  0  0  0  0  0  0  0
   74.9653   40.0083   40.8230 H   0  0  0  0  0  0  0  0  0  0  0  0
   78.3306   43.8385   39.7160 H   0  0  0  0  0  0  0  0  0  0  0  0
   79.4166   43.6419   41.9481 H   0  0  0  0  0  0  0  0  0  0  0  0
   78.8500   41.7703   43.4514 H   0  0  0  0  0  0  0  0  0  0  0  0
  1 19  1  0  0  0  0
  1 18  2  0  0  0  0
  1  2  1  0  0  0  0
  2  3  2  0  0  0  0
  2 15  1  0  0  0  0
  3 16  1  0  0  0  0
  3  4  1  0  0  0  0
  4  6  1  0  0  0  0
  4  5  2  0  0  0  0
  6 15  1  0  0  0  0
  7  6  1  0  0  0  0
  7 20  1  0  0  0  0
  7  8  1  0  0  0  0
  7 14  1  0  0  0  0
  8  9  2  0  0  0  0
  8 10  1  0  0  0  0
 10 21  1  0  0  0  0
 10 11  1  0  0  0  0
 11 12  2  0  0  0  0
 11 13  1  0  0  0  0
 13 22  1  0  0  0  0
 13 23  1  0  0  0  0
 13 14  1  0  0  0  0
 14 24  1  0  0  0  0
 14 25  1  0  0  0  0
 15 26  1  0  0  0  0
 15 27  1  0  0  0  0
 16 17  2  0  0  0  0
 16 28  1  0  0  0  0
 17 18  1  0  0  0  0
 17 29  1  0  0  0  0
 18 30  1  0  0  0  0
M  ZZC   1 c1
M  ZZC   2 c2
M  ZZC   3 c3
M  ZZC   4 c4
M  ZZC   5 o1
M  ZZC   6 n1
M  ZZC   7 c5
M  ZZC   8 c6
M  ZZC   9 o2
M  ZZC  10 n2
M  ZZC  11 c7
M  ZZC  12 o3
M  ZZC  13 c8
M  ZZC  14 c9
M  ZZC  15 c10
M  ZZC  16 c11
M  ZZC  17 c12
M  ZZC  18 c13
M  ZZC  19 h11
M  ZZC  20 h51
M  ZZC  21 h21
M  ZZC  22 h81
M  ZZC  23 h82
M  ZZC  24 h91
M  ZZC  25 h92
M  ZZC  26 h101
M  ZZC  27 h102
M  ZZC  28 h111
M  ZZC  29 h121
M  ZZC  30 h131
M  ZZM   1 37
M  ZZI   1 125
M  ZZM   2 37
M  ZZI   2 124
M  ZZM   3 37
M  ZZI   3 124
M  ZZM   4 3
M  ZZI   4 121
M  ZZM   5 7
M  ZZI   5 81
M  ZZM   6 10
M  ZZI   6 192
M  ZZM   7 1
M  ZZI   7 113
M  ZZM   8 3
M  ZZI   8 121
M  ZZM   9 7
M  ZZI   9 81
M  ZZM  10 10
M  ZZI  10 191
M  ZZM  11 3
M  ZZI  11 121
M  ZZM  12 7
M  ZZI  12 81
M  ZZM  13 1
M  ZZI  13 112
M  ZZM  14 1
M  ZZI  14 112
M  ZZM  15 1
M  ZZI  15 112
M  ZZM  16 37
M  ZZI  16 125
M  ZZM  17 37
M  ZZI  17 125
M  ZZM  18 37
M  ZZI  18 125
M  ZZM  19 5
M  ZZI  19 1
M  ZZM  20 5
M  ZZI  20 1
M  ZZM  21 28
M  ZZI  21 11
M  ZZM  22 5
M  ZZI  22 1
M  ZZM  23 5
M  ZZI  23 1
M  ZZM  24 5
M  ZZI  24 1
M  ZZM  25 5
M  ZZI  25 1
M  ZZM  26 5
M  ZZI  26 1
M  ZZM  27 5
M  ZZI  27 1
M  ZZM  28 5
M  ZZI  28 1
M  ZZM  29 5
M  ZZI  29 1
M  ZZM  30 5
M  ZZI  30 1
M  END
> <IX>
1

> <NAME>
Cereblon_6XJK_5.pdb

> <Score>
-15.667807

> <Natom>
30

> <Nflex>
1

> <Hbond>
-4.263611

> <Hphob>
-3.724956

> <VwInt>
-19.260763

> <Dsolv>
14.069684

> <SolEl>
4.543983

> <Eintl>
4.540536

> <RecConf>
ND

> <projPath>
Cereblon_maps/

> <NAME_>
Cereblon_6XJK_5.pdb

$$$$
