Cereblon_3LQ5_9.pdb
  MOLSOFT 04032206213D

 29 31  0  0  1  0  0  0  0  0999 V2000
   79.0094   42.4909   42.6719 C   0  0  0  0  0  0  0  0  0  0  0  0
   78.1875   42.1971   41.5981 C   0  0  0  0  0  0  0  0  0  0  0  0
   77.2695   41.0787   41.4132 C   0  0  0  0  0  0  0  0  0  0  0  0
   77.0896   40.2184   42.2615 O   0  0  0  0  0  0  0  0  0  0  0  0
   76.7278   41.2210   40.1488 N   0  0  0  0  0  0  0  0  0  0  0  0
   77.2234   42.3485   39.5254 C   0  0  0  0  0  0  0  0  0  0  0  0
   76.9879   42.7655   38.3988 O   0  0  0  0  0  0  0  0  0  0  0  0
   78.1589   42.9600   40.4698 C   0  0  0  0  0  0  0  0  0  0  0  0
   78.9582   44.0752   40.3255 C   0  0  0  0  0  0  0  0  0  0  0  0
   79.8025   44.3848   41.3859 C   0  0  0  0  0  0  0  0  0  0  0  0
   79.8294   43.6057   42.5433 C   0  0  0  0  0  0  0  0  0  0  0  0
   75.7208   40.3654   39.5157 C   0  0  2  0  0  0  0  0  0  0  0  0
   74.3409   40.9337   39.8027 C   0  0  0  0  0  0  0  0  0  0  0  0
   74.1532   42.1203   40.0142 O   0  0  0  0  0  0  0  0  0  0  0  0
   73.2910   40.0511   39.7300 N   0  0  0  0  0  0  0  0  0  0  0  0
   73.3291   38.7050   39.4600 C   0  0  0  0  0  0  0  0  0  0  0  0
   72.3139   38.0306   39.4049 O   0  0  0  0  0  0  0  0  0  0  0  0
   74.6936   38.1246   39.1830 C   0  0  0  0  0  0  0  0  0  0  0  0
   75.7760   38.8957   39.9176 C   0  0  0  0  0  0  0  0  0  0  0  0
   79.0231   41.8758   43.5673 H   0  0  0  0  0  0  0  0  0  0  0  0
   78.9263   44.6755   39.4237 H   0  0  0  0  0  0  0  0  0  0  0  0
   80.4529   45.2491   41.3142 H   0  0  0  0  0  0  0  0  0  0  0  0
   80.5005   43.8723   43.3549 H   0  0  0  0  0  0  0  0  0  0  0  0
   75.8612   40.4523   38.4363 H   0  0  0  0  0  0  0  0  0  0  0  0
   72.3724   40.4444   39.8932 H   0  0  0  0  0  0  0  0  0  0  0  0
   74.7006   37.0793   39.5075 H   0  0  0  0  0  0  0  0  0  0  0  0
   74.8532   38.1463   38.1004 H   0  0  0  0  0  0  0  0  0  0  0  0
   76.7612   38.4747   39.6929 H   0  0  0  0  0  0  0  0  0  0  0  0
   75.6148   38.7760   40.9928 H   0  0  0  0  0  0  0  0  0  0  0  0
  1 20  1  0  0  0  0
  1  2  1  0  0  0  0
  1 11  2  0  0  0  0
  2  3  1  0  0  0  0
  2  8  2  0  0  0  0
  3  4  2  0  0  0  0
  3  5  1  0  0  0  0
  5  6  1  0  0  0  0
 12  5  1  0  0  0  0
  6  7  2  0  0  0  0
  6  8  1  0  0  0  0
  8  9  1  0  0  0  0
  9 21  1  0  0  0  0
  9 10  2  0  0  0  0
 10 22  1  0  0  0  0
 10 11  1  0  0  0  0
 11 23  1  0  0  0  0
 12 24  1  0  0  0  0
 12 13  1  0  0  0  0
 12 19  1  0  0  0  0
 13 14  2  0  0  0  0
 13 15  1  0  0  0  0
 15 25  1  0  0  0  0
 15 16  1  0  0  0  0
 16 17  2  0  0  0  0
 16 18  1  0  0  0  0
 18 26  1  0  0  0  0
 18 27  1  0  0  0  0
 18 19  1  0  0  0  0
 19 28  1  0  0  0  0
 19 29  1  0  0  0  0
M  ZZC   1 c1
M  ZZC   2 c2
M  ZZC   3 c3
M  ZZC   4 o1
M  ZZC   5 n1
M  ZZC   6 c4
M  ZZC   7 o2
M  ZZC   8 c5
M  ZZC   9 c6
M  ZZC  10 c7
M  ZZC  11 c8
M  ZZC  12 c9
M  ZZC  13 c10
M  ZZC  14 o3
M  ZZC  15 n2
M  ZZC  16 c11
M  ZZC  17 o4
M  ZZC  18 c12
M  ZZC  19 c13
M  ZZC  20 h11
M  ZZC  21 h61
M  ZZC  22 h71
M  ZZC  23 h81
M  ZZC  24 h91
M  ZZC  25 h21
M  ZZC  26 h121
M  ZZC  27 h122
M  ZZC  28 h131
M  ZZC  29 h132
M  ZZM   1 37
M  ZZI   1 125
M  ZZM   2 37
M  ZZI   2 124
M  ZZM   3 3
M  ZZI   3 121
M  ZZM   4 7
M  ZZI   4 81
M  ZZM   5 10
M  ZZI   5 192
M  ZZM   6 3
M  ZZI   6 121
M  ZZM   7 7
M  ZZI   7 81
M  ZZM   8 37
M  ZZI   8 124
M  ZZM   9 37
M  ZZI   9 125
M  ZZM  10 37
M  ZZI  10 125
M  ZZM  11 37
M  ZZI  11 125
M  ZZM  12 1
M  ZZI  12 113
M  ZZM  13 3
M  ZZI  13 121
M  ZZM  14 7
M  ZZI  14 81
M  ZZM  15 10
M  ZZI  15 191
M  ZZM  16 3
M  ZZI  16 121
M  ZZM  17 7
M  ZZI  17 81
M  ZZM  18 1
M  ZZI  18 112
M  ZZM  19 1
M  ZZI  19 112
M  ZZM  20 5
M  ZZI  20 1
M  ZZM  21 5
M  ZZI  21 1
M  ZZM  22 5
M  ZZI  22 1
M  ZZM  23 5
M  ZZI  23 1
M  ZZM  24 5
M  ZZI  24 1
M  ZZM  25 28
M  ZZI  25 11
M  ZZM  26 5
M  ZZI  26 1
M  ZZM  27 5
M  ZZI  27 1
M  ZZM  28 5
M  ZZI  28 1
M  ZZM  29 5
M  ZZI  29 1
M  END
> <IX>
1

> <NAME>
Cereblon_3LQ5_9.pdb

> <Score>
-19.430003

> <Natom>
29

> <Nflex>
1

> <Hbond>
-3.371627

> <Hphob>
-3.507868

> <VwInt>
-22.718352

> <Dsolv>
11.960764

> <SolEl>
5.587343

> <Eintl>
1.517696

> <RecConf>
ND

> <projPath>
Cereblon_maps/

> <NAME_>
Cereblon_3LQ5_9.pdb

$$$$
