Cereblon_5T8E_61.pdb
  MOLSOFT 04032206263D

 29 31  0  0  1  0  0  0  0  0999 V2000
   79.0020   42.4865   42.6727 C   0  0  0  0  0  0  0  0  0  0  0  0
   78.1831   42.1935   41.5965 C   0  0  0  0  0  0  0  0  0  0  0  0
   77.2664   41.0751   41.4096 C   0  0  0  0  0  0  0  0  0  0  0  0
   77.0863   40.2133   42.2563 O   0  0  0  0  0  0  0  0  0  0  0  0
   76.7249   41.2193   40.1456 N   0  0  0  0  0  0  0  0  0  0  0  0
   77.2217   42.3465   39.5232 C   0  0  0  0  0  0  0  0  0  0  0  0
   76.9872   42.7651   38.3969 O   0  0  0  0  0  0  0  0  0  0  0  0
   78.1560   42.9577   40.4691 C   0  0  0  0  0  0  0  0  0  0  0  0
   78.9556   44.0737   40.3286 C   0  0  0  0  0  0  0  0  0  0  0  0
   79.7972   44.3821   41.3915 C   0  0  0  0  0  0  0  0  0  0  0  0
   79.8215   43.6016   42.5478 C   0  0  0  0  0  0  0  0  0  0  0  0
   75.7168   40.3647   39.5119 C   0  0  2  0  0  0  0  0  0  0  0  0
   74.3368   40.9338   39.7999 C   0  0  0  0  0  0  0  0  0  0  0  0
   74.1503   42.1198   40.0155 O   0  0  0  0  0  0  0  0  0  0  0  0
   73.2860   40.0527   39.7211 N   0  0  0  0  0  0  0  0  0  0  0  0
   73.3238   38.7070   39.4489 C   0  0  0  0  0  0  0  0  0  0  0  0
   72.3081   38.0335   39.3898 O   0  0  0  0  0  0  0  0  0  0  0  0
   74.6888   38.1253   39.1749 C   0  0  0  0  0  0  0  0  0  0  0  0
   75.7701   38.8944   39.9133 C   0  0  0  0  0  0  0  0  0  0  0  0
   79.0128   41.8702   43.5673 H   0  0  0  0  0  0  0  0  0  0  0  0
   78.9266   44.6758   39.4283 H   0  0  0  0  0  0  0  0  0  0  0  0
   80.4486   45.2456   41.3220 H   0  0  0  0  0  0  0  0  0  0  0  0
   80.4909   43.8678   43.3608 H   0  0  0  0  0  0  0  0  0  0  0  0
   75.8571   40.4535   38.4326 H   0  0  0  0  0  0  0  0  0  0  0  0
   72.3674   40.4465   39.8828 H   0  0  0  0  0  0  0  0  0  0  0  0
   74.6934   37.0800   39.4999 H   0  0  0  0  0  0  0  0  0  0  0  0
   74.8520   38.1469   38.0929 H   0  0  0  0  0  0  0  0  0  0  0  0
   75.6051   38.7751   40.9878 H   0  0  0  0  0  0  0  0  0  0  0  0
   76.7557   38.4718   39.6927 H   0  0  0  0  0  0  0  0  0  0  0  0
  1 20  1  0  0  0  0
  1  2  1  0  0  0  0
  1 11  2  0  0  0  0
  2  3  1  0  0  0  0
  2  8  2  0  0  0  0
  3  4  2  0  0  0  0
  3  5  1  0  0  0  0
  5  6  1  0  0  0  0
 12  5  1  0  0  0  0
  6  7  2  0  0  0  0
  6  8  1  0  0  0  0
  8  9  1  0  0  0  0
  9 21  1  0  0  0  0
  9 10  2  0  0  0  0
 10 22  1  0  0  0  0
 10 11  1  0  0  0  0
 11 23  1  0  0  0  0
 12 24  1  0  0  0  0
 12 13  1  0  0  0  0
 12 19  1  0  0  0  0
 13 14  2  0  0  0  0
 13 15  1  0  0  0  0
 15 25  1  0  0  0  0
 15 16  1  0  0  0  0
 16 17  2  0  0  0  0
 16 18  1  0  0  0  0
 18 26  1  0  0  0  0
 18 27  1  0  0  0  0
 18 19  1  0  0  0  0
 19 28  1  0  0  0  0
 19 29  1  0  0  0  0
M  ZZC   1 c1
M  ZZC   2 c2
M  ZZC   3 c3
M  ZZC   4 o1
M  ZZC   5 n1
M  ZZC   6 c4
M  ZZC   7 o2
M  ZZC   8 c5
M  ZZC   9 c6
M  ZZC  10 c7
M  ZZC  11 c8
M  ZZC  12 c9
M  ZZC  13 c10
M  ZZC  14 o3
M  ZZC  15 n2
M  ZZC  16 c11
M  ZZC  17 o4
M  ZZC  18 c12
M  ZZC  19 c13
M  ZZC  20 h11
M  ZZC  21 h61
M  ZZC  22 h71
M  ZZC  23 h81
M  ZZC  24 h91
M  ZZC  25 h21
M  ZZC  26 h121
M  ZZC  27 h122
M  ZZC  28 h131
M  ZZC  29 h132
M  ZZM   1 37
M  ZZI   1 125
M  ZZM   2 37
M  ZZI   2 124
M  ZZM   3 3
M  ZZI   3 121
M  ZZM   4 7
M  ZZI   4 81
M  ZZM   5 10
M  ZZI   5 192
M  ZZM   6 3
M  ZZI   6 121
M  ZZM   7 7
M  ZZI   7 81
M  ZZM   8 37
M  ZZI   8 124
M  ZZM   9 37
M  ZZI   9 125
M  ZZM  10 37
M  ZZI  10 125
M  ZZM  11 37
M  ZZI  11 125
M  ZZM  12 1
M  ZZI  12 113
M  ZZM  13 3
M  ZZI  13 121
M  ZZM  14 7
M  ZZI  14 81
M  ZZM  15 10
M  ZZI  15 191
M  ZZM  16 3
M  ZZI  16 121
M  ZZM  17 7
M  ZZI  17 81
M  ZZM  18 1
M  ZZI  18 112
M  ZZM  19 1
M  ZZI  19 112
M  ZZM  20 5
M  ZZI  20 1
M  ZZM  21 5
M  ZZI  21 1
M  ZZM  22 5
M  ZZI  22 1
M  ZZM  23 5
M  ZZI  23 1
M  ZZM  24 5
M  ZZI  24 1
M  ZZM  25 28
M  ZZI  25 11
M  ZZM  26 5
M  ZZI  26 1
M  ZZM  27 5
M  ZZI  27 1
M  ZZM  28 5
M  ZZI  28 1
M  ZZM  29 5
M  ZZI  29 1
M  END
> <IX>
1

> <NAME>
Cereblon_5T8E_61.pdb

> <Score>
-19.282522

> <Natom>
29

> <Nflex>
1

> <Hbond>
-3.296421

> <Hphob>
-3.518529

> <VwInt>
-22.830589

> <Dsolv>
12.046536

> <SolEl>
5.623811

> <Eintl>
1.498015

> <RecConf>
ND

> <projPath>
Cereblon_maps/

> <NAME_>
Cereblon_5T8E_61.pdb

$$$$
