Cereblon_1HWK_3.pdb
  MOLSOFT 04032206193D

 31 33  0  0  1  0  0  0  0  0999 V2000
   77.9937   40.6338   42.7180 N   0  0  0  0  0  0  0  0  0  0  0  0
   78.1431   41.6614   41.7712 C   0  0  0  0  0  0  0  0  0  0  0  0
   77.3015   41.7874   40.6748 C   0  0  0  0  0  0  0  0  0  0  0  0
   76.2291   40.9090   40.2143 C   0  0  0  0  0  0  0  0  0  0  0  0
   75.9835   39.8136   40.6998 O   0  0  0  0  0  0  0  0  0  0  0  0
   75.6122   41.5528   39.1576 N   0  0  0  0  0  0  0  0  0  0  0  0
   76.3447   42.6627   38.7876 C   0  0  0  0  0  0  0  0  0  0  0  0
   76.2459   43.3735   37.7988 O   0  0  0  0  0  0  0  0  0  0  0  0
   77.3823   42.8315   39.8048 C   0  0  0  0  0  0  0  0  0  0  0  0
   78.3246   43.8333   39.9485 C   0  0  0  0  0  0  0  0  0  0  0  0
   79.1739   43.7447   41.0442 C   0  0  0  0  0  0  0  0  0  0  0  0
   79.0661   42.6896   41.9524 C   0  0  0  0  0  0  0  0  0  0  0  0
   74.3654   41.0488   38.5538 C   0  0  1  0  0  0  0  0  0  0  0  0
   73.2252   41.3222   39.5253 C   0  0  0  0  0  0  0  0  0  0  0  0
   73.3991   41.6043   40.6984 O   0  0  0  0  0  0  0  0  0  0  0  0
   71.9569   41.1784   39.0226 N   0  0  0  0  0  0  0  0  0  0  0  0
   71.5831   40.9440   37.7248 C   0  0  0  0  0  0  0  0  0  0  0  0
   70.4220   40.6996   37.4348 O   0  0  0  0  0  0  0  0  0  0  0  0
   72.7022   40.9499   36.7039 C   0  0  0  0  0  0  0  0  0  0  0  0
   73.9403   41.6704   37.2231 C   0  0  0  0  0  0  0  0  0  0  0  0
   78.7741   40.4210   43.3379 H   0  0  0  0  0  0  0  0  0  0  0  0
   77.3617   39.8676   42.4825 H   0  0  0  0  0  0  0  0  0  0  0  0
   78.3872   44.6596   39.2488 H   0  0  0  0  0  0  0  0  0  0  0  0
   79.9157   44.5197   41.2103 H   0  0  0  0  0  0  0  0  0  0  0  0
   79.7212   42.6722   42.8178 H   0  0  0  0  0  0  0  0  0  0  0  0
   74.4599   39.9599   38.4676 H   0  0  0  0  0  0  0  0  0  0  0  0
   71.2041   41.2733   39.6916 H   0  0  0  0  0  0  0  0  0  0  0  0
   72.9385   39.9107   36.4517 H   0  0  0  0  0  0  0  0  0  0  0  0
   72.3419   41.4451   35.7964 H   0  0  0  0  0  0  0  0  0  0  0  0
   73.7109   42.7348   37.3521 H   0  0  0  0  0  0  0  0  0  0  0  0
   74.7369   41.6152   36.4800 H   0  0  0  0  0  0  0  0  0  0  0  0
  1  2  1  0  0  0  0
  1 21  1  0  0  0  0
  1 22  1  0  0  0  0
  2  3  1  0  0  0  0
  2 12  2  0  0  0  0
  3  9  2  0  0  0  0
  3  4  1  0  0  0  0
  4  5  2  0  0  0  0
  4  6  1  0  0  0  0
  6  7  1  0  0  0  0
 13  6  1  0  0  0  0
  7  8  2  0  0  0  0
  7  9  1  0  0  0  0
  9 10  1  0  0  0  0
 10 23  1  0  0  0  0
 10 11  2  0  0  0  0
 11 12  1  0  0  0  0
 11 24  1  0  0  0  0
 12 25  1  0  0  0  0
 13 26  1  0  0  0  0
 13 14  1  0  0  0  0
 13 20  1  0  0  0  0
 14 15  2  0  0  0  0
 14 16  1  0  0  0  0
 16 27  1  0  0  0  0
 16 17  1  0  0  0  0
 17 18  2  0  0  0  0
 17 19  1  0  0  0  0
 19 28  1  0  0  0  0
 19 29  1  0  0  0  0
 19 20  1  0  0  0  0
 20 30  1  0  0  0  0
 20 31  1  0  0  0  0
M  ZZC   1 n1
M  ZZC   2 c1
M  ZZC   3 c2
M  ZZC   4 c3
M  ZZC   5 o1
M  ZZC   6 n2
M  ZZC   7 c4
M  ZZC   8 o2
M  ZZC   9 c5
M  ZZC  10 c6
M  ZZC  11 c7
M  ZZC  12 c8
M  ZZC  13 c9
M  ZZC  14 c10
M  ZZC  15 o3
M  ZZC  16 n3
M  ZZC  17 c11
M  ZZC  18 o4
M  ZZC  19 c12
M  ZZC  20 c13
M  ZZC  21 h11
M  ZZC  22 h12
M  ZZC  23 h61
M  ZZC  24 h71
M  ZZC  25 h81
M  ZZC  26 h91
M  ZZC  27 h31
M  ZZC  28 h121
M  ZZC  29 h122
M  ZZC  30 h131
M  ZZC  31 h132
M  ZZM   1 40
M  ZZI   1 224
M  ZZM   2 37
M  ZZI   2 124
M  ZZM   3 37
M  ZZI   3 124
M  ZZM   4 3
M  ZZI   4 121
M  ZZM   5 7
M  ZZI   5 81
M  ZZM   6 10
M  ZZI   6 192
M  ZZM   7 3
M  ZZI   7 121
M  ZZM   8 7
M  ZZI   8 81
M  ZZM   9 37
M  ZZI   9 124
M  ZZM  10 37
M  ZZI  10 125
M  ZZM  11 37
M  ZZI  11 125
M  ZZM  12 37
M  ZZI  12 125
M  ZZM  13 1
M  ZZI  13 113
M  ZZM  14 3
M  ZZI  14 121
M  ZZM  15 7
M  ZZI  15 81
M  ZZM  16 10
M  ZZI  16 191
M  ZZM  17 3
M  ZZI  17 121
M  ZZM  18 7
M  ZZI  18 81
M  ZZM  19 1
M  ZZI  19 112
M  ZZM  20 1
M  ZZI  20 112
M  ZZM  21 28
M  ZZI  21 11
M  ZZM  22 28
M  ZZI  22 11
M  ZZM  23 5
M  ZZI  23 1
M  ZZM  24 5
M  ZZI  24 1
M  ZZM  25 5
M  ZZI  25 1
M  ZZM  26 5
M  ZZI  26 1
M  ZZM  27 28
M  ZZI  27 11
M  ZZM  28 5
M  ZZI  28 1
M  ZZM  29 5
M  ZZI  29 1
M  ZZM  30 5
M  ZZI  30 1
M  ZZM  31 5
M  ZZI  31 1
M  END
> <IX>
1

> <NAME>
Cereblon_1HWK_3.pdb

> <Score>
-15.098601

> <Natom>
31

> <Nflex>
1

> <Hbond>
-2.871841

> <Hphob>
-3.752991

> <VwInt>
-26.96206

> <Dsolv>
17.089745

> <SolEl>
7.292646

> <Eintl>
5.688777

> <RecConf>
ND

> <projPath>
Cereblon_maps/

> <NAME_>
Cereblon_1HWK_3.pdb

$$$$
