Cereblon_6VS3_2.pdb
  MOLSOFT 04032206293D

 30 32  0  0  1  0  0  0  0  0999 V2000
   79.1034   43.6592   41.6141 C   0  0  0  0  0  0  0  0  0  0  0  0
   78.1359   42.7776   41.1583 C   0  0  0  0  0  0  0  0  0  0  0  0
   77.8637   41.6306   41.8478 C   0  0  0  0  0  0  0  0  0  0  0  0
   76.8867   40.8550   41.0768 C   0  0  0  0  0  0  0  0  0  0  0  0
   76.5397   39.7189   41.3640 O   0  0  0  0  0  0  0  0  0  0  0  0
   76.4962   41.6436   40.0082 N   0  0  0  0  0  0  0  0  0  0  0  0
   75.5346   41.2127   38.9739 C   0  0  2  0  0  0  0  0  0  0  0  0
   75.3749   42.1743   37.7883 C   0  0  0  0  0  0  0  0  0  0  0  0
   76.3077   42.7953   37.3051 O   0  0  0  0  0  0  0  0  0  0  0  0
   74.1406   42.2285   37.1848 N   0  0  0  0  0  0  0  0  0  0  0  0
   73.0407   41.4446   37.4151 C   0  0  0  0  0  0  0  0  0  0  0  0
   72.0297   41.5267   36.7362 O   0  0  0  0  0  0  0  0  0  0  0  0
   73.1959   40.4264   38.5099 C   0  0  0  0  0  0  0  0  0  0  0  0
   74.1579   40.9231   39.5709 C   0  0  0  0  0  0  0  0  0  0  0  0
   77.2772   42.8709   39.9508 C   0  0  0  0  0  0  0  0  0  0  0  0
   78.4601   41.3234   43.0565 C   0  0  0  0  0  0  0  0  0  0  0  0
   79.3981   42.2256   43.5416 C   0  0  0  0  0  0  0  0  0  0  0  0
   79.7308   43.3686   42.8186 C   0  0  0  0  0  0  0  0  0  0  0  0
   79.3446   44.5629   41.0634 H   0  0  0  0  0  0  0  0  0  0  0  0
   75.9328   40.2740   38.5762 H   0  0  0  0  0  0  0  0  0  0  0  0
   74.0543   42.8796   36.4155 H   0  0  0  0  0  0  0  0  0  0  0  0
   72.2134   40.2456   38.9581 H   0  0  0  0  0  0  0  0  0  0  0  0
   73.5492   39.4900   38.0651 H   0  0  0  0  0  0  0  0  0  0  0  0
   74.2301   40.1614   40.3488 H   0  0  0  0  0  0  0  0  0  0  0  0
   73.7483   41.8197   40.0462 H   0  0  0  0  0  0  0  0  0  0  0  0
   76.6111   43.7342   39.9857 H   0  0  0  0  0  0  0  0  0  0  0  0
   77.8935   42.8883   39.0534 H   0  0  0  0  0  0  0  0  0  0  0  0
   78.2124   40.4176   43.6014 H   0  0  0  0  0  0  0  0  0  0  0  0
   79.8865   42.0345   44.4922 H   0  0  0  0  0  0  0  0  0  0  0  0
   80.4789   44.0500   43.2124 H   0  0  0  0  0  0  0  0  0  0  0  0
  1 19  1  0  0  0  0
  1 18  2  0  0  0  0
  1  2  1  0  0  0  0
  2  3  2  0  0  0  0
  2 15  1  0  0  0  0
  3 16  1  0  0  0  0
  3  4  1  0  0  0  0
  4  6  1  0  0  0  0
  4  5  2  0  0  0  0
  6 15  1  0  0  0  0
  7  6  1  0  0  0  0
  7 20  1  0  0  0  0
  7  8  1  0  0  0  0
  7 14  1  0  0  0  0
  8  9  2  0  0  0  0
  8 10  1  0  0  0  0
 10 21  1  0  0  0  0
 10 11  1  0  0  0  0
 11 12  2  0  0  0  0
 11 13  1  0  0  0  0
 13 22  1  0  0  0  0
 13 23  1  0  0  0  0
 13 14  1  0  0  0  0
 14 24  1  0  0  0  0
 14 25  1  0  0  0  0
 15 26  1  0  0  0  0
 15 27  1  0  0  0  0
 16 17  2  0  0  0  0
 16 28  1  0  0  0  0
 17 18  1  0  0  0  0
 17 29  1  0  0  0  0
 18 30  1  0  0  0  0
M  ZZC   1 c1
M  ZZC   2 c2
M  ZZC   3 c3
M  ZZC   4 c4
M  ZZC   5 o1
M  ZZC   6 n1
M  ZZC   7 c5
M  ZZC   8 c6
M  ZZC   9 o2
M  ZZC  10 n2
M  ZZC  11 c7
M  ZZC  12 o3
M  ZZC  13 c8
M  ZZC  14 c9
M  ZZC  15 c10
M  ZZC  16 c11
M  ZZC  17 c12
M  ZZC  18 c13
M  ZZC  19 h11
M  ZZC  20 h51
M  ZZC  21 h21
M  ZZC  22 h81
M  ZZC  23 h82
M  ZZC  24 h91
M  ZZC  25 h92
M  ZZC  26 h101
M  ZZC  27 h102
M  ZZC  28 h111
M  ZZC  29 h121
M  ZZC  30 h131
M  ZZM   1 37
M  ZZI   1 125
M  ZZM   2 37
M  ZZI   2 124
M  ZZM   3 37
M  ZZI   3 124
M  ZZM   4 3
M  ZZI   4 121
M  ZZM   5 7
M  ZZI   5 81
M  ZZM   6 10
M  ZZI   6 192
M  ZZM   7 1
M  ZZI   7 113
M  ZZM   8 3
M  ZZI   8 121
M  ZZM   9 7
M  ZZI   9 81
M  ZZM  10 10
M  ZZI  10 191
M  ZZM  11 3
M  ZZI  11 121
M  ZZM  12 7
M  ZZI  12 81
M  ZZM  13 1
M  ZZI  13 112
M  ZZM  14 1
M  ZZI  14 112
M  ZZM  15 1
M  ZZI  15 112
M  ZZM  16 37
M  ZZI  16 125
M  ZZM  17 37
M  ZZI  17 125
M  ZZM  18 37
M  ZZI  18 125
M  ZZM  19 5
M  ZZI  19 1
M  ZZM  20 5
M  ZZI  20 1
M  ZZM  21 28
M  ZZI  21 11
M  ZZM  22 5
M  ZZI  22 1
M  ZZM  23 5
M  ZZI  23 1
M  ZZM  24 5
M  ZZI  24 1
M  ZZM  25 5
M  ZZI  25 1
M  ZZM  26 5
M  ZZI  26 1
M  ZZM  27 5
M  ZZI  27 1
M  ZZM  28 5
M  ZZI  28 1
M  ZZM  29 5
M  ZZI  29 1
M  ZZM  30 5
M  ZZI  30 1
M  END
> <IX>
1

> <NAME>
Cereblon_6VS3_2.pdb

> <Score>
-9.402597

> <Natom>
30

> <Nflex>
1

> <Hbond>
-2.148097

> <Hphob>
-4.031878

> <VwInt>
-22.694841

> <Dsolv>
13.597355

> <SolEl>
11.825243

> <Eintl>
4.70935

> <RecConf>
ND

> <projPath>
Cereblon_maps/

> <NAME_>
Cereblon_6VS3_2.pdb

$$$$
