Cereblon_2VTI_8.pdb
  MOLSOFT 04032206203D

 29 31  0  0  1  0  0  0  0  0999 V2000
   72.1198   43.1915   35.4304 C   0  0  0  0  0  0  0  0  0  0  0  0
   72.1574   42.4008   36.5543 C   0  0  0  0  0  0  0  0  0  0  0  0
   73.3086   41.8128   37.2248 C   0  0  0  0  0  0  0  0  0  0  0  0
   74.4563   41.9120   36.8149 O   0  0  0  0  0  0  0  0  0  0  0  0
   72.8174   41.1773   38.3471 N   0  0  0  0  0  0  0  0  0  0  0  0
   71.4367   41.2368   38.3766 C   0  0  0  0  0  0  0  0  0  0  0  0
   70.6451   40.6929   39.1332 O   0  0  0  0  0  0  0  0  0  0  0  0
   71.0341   42.0664   37.2407 C   0  0  0  0  0  0  0  0  0  0  0  0
   69.7849   42.5080   36.8406 C   0  0  0  0  0  0  0  0  0  0  0  0
   69.7230   43.3059   35.7077 C   0  0  0  0  0  0  0  0  0  0  0  0
   70.8792   43.6542   35.0202 C   0  0  0  0  0  0  0  0  0  0  0  0
   73.6260   40.3713   39.2642 C   0  0  2  0  0  0  0  0  0  0  0  0
   74.9006   41.1168   39.6593 C   0  0  0  0  0  0  0  0  0  0  0  0
   74.9141   42.3208   39.8589 O   0  0  0  0  0  0  0  0  0  0  0  0
   76.0247   40.3494   39.8631 N   0  0  0  0  0  0  0  0  0  0  0  0
   76.1188   38.9811   39.9002 C   0  0  0  0  0  0  0  0  0  0  0  0
   77.1596   38.4127   40.1882 O   0  0  0  0  0  0  0  0  0  0  0  0
   74.8402   38.2268   39.6361 C   0  0  0  0  0  0  0  0  0  0  0  0
   73.9398   38.9968   38.6874 C   0  0  0  0  0  0  0  0  0  0  0  0
   73.0277   43.4386   34.9040 H   0  0  0  0  0  0  0  0  0  0  0  0
   68.8858   42.2557   37.3849 H   0  0  0  0  0  0  0  0  0  0  0  0
   68.7633   43.6650   35.3531 H   0  0  0  0  0  0  0  0  0  0  0  0
   70.8067   44.3001   34.1558 H   0  0  0  0  0  0  0  0  0  0  0  0
   73.0412   40.2395   40.1818 H   0  0  0  0  0  0  0  0  0  0  0  0
   76.8818   40.8503   40.0691 H   0  0  0  0  0  0  0  0  0  0  0  0
   75.0921   37.2547   39.2011 H   0  0  0  0  0  0  0  0  0  0  0  0
   74.3410   38.0518   40.5948 H   0  0  0  0  0  0  0  0  0  0  0  0
   74.4213   39.0885   37.7106 H   0  0  0  0  0  0  0  0  0  0  0  0
   73.0133   38.4381   38.5188 H   0  0  0  0  0  0  0  0  0  0  0  0
  1 20  1  0  0  0  0
  1  2  1  0  0  0  0
  1 11  2  0  0  0  0
  2  3  1  0  0  0  0
  2  8  2  0  0  0  0
  3  4  2  0  0  0  0
  3  5  1  0  0  0  0
  5  6  1  0  0  0  0
 12  5  1  0  0  0  0
  6  7  2  0  0  0  0
  6  8  1  0  0  0  0
  8  9  1  0  0  0  0
  9 21  1  0  0  0  0
  9 10  2  0  0  0  0
 10 22  1  0  0  0  0
 10 11  1  0  0  0  0
 11 23  1  0  0  0  0
 12 24  1  0  0  0  0
 12 13  1  0  0  0  0
 12 19  1  0  0  0  0
 13 14  2  0  0  0  0
 13 15  1  0  0  0  0
 15 25  1  0  0  0  0
 15 16  1  0  0  0  0
 16 17  2  0  0  0  0
 16 18  1  0  0  0  0
 18 26  1  0  0  0  0
 18 27  1  0  0  0  0
 18 19  1  0  0  0  0
 19 28  1  0  0  0  0
 19 29  1  0  0  0  0
M  ZZC   1 c1
M  ZZC   2 c2
M  ZZC   3 c3
M  ZZC   4 o1
M  ZZC   5 n1
M  ZZC   6 c4
M  ZZC   7 o2
M  ZZC   8 c5
M  ZZC   9 c6
M  ZZC  10 c7
M  ZZC  11 c8
M  ZZC  12 c9
M  ZZC  13 c10
M  ZZC  14 o3
M  ZZC  15 n2
M  ZZC  16 c11
M  ZZC  17 o4
M  ZZC  18 c12
M  ZZC  19 c13
M  ZZC  20 h11
M  ZZC  21 h61
M  ZZC  22 h71
M  ZZC  23 h81
M  ZZC  24 h91
M  ZZC  25 h21
M  ZZC  26 h121
M  ZZC  27 h122
M  ZZC  28 h131
M  ZZC  29 h132
M  ZZM   1 37
M  ZZI   1 125
M  ZZM   2 37
M  ZZI   2 124
M  ZZM   3 3
M  ZZI   3 121
M  ZZM   4 7
M  ZZI   4 81
M  ZZM   5 10
M  ZZI   5 192
M  ZZM   6 3
M  ZZI   6 121
M  ZZM   7 7
M  ZZI   7 81
M  ZZM   8 37
M  ZZI   8 124
M  ZZM   9 37
M  ZZI   9 125
M  ZZM  10 37
M  ZZI  10 125
M  ZZM  11 37
M  ZZI  11 125
M  ZZM  12 1
M  ZZI  12 113
M  ZZM  13 3
M  ZZI  13 121
M  ZZM  14 7
M  ZZI  14 81
M  ZZM  15 10
M  ZZI  15 191
M  ZZM  16 3
M  ZZI  16 121
M  ZZM  17 7
M  ZZI  17 81
M  ZZM  18 1
M  ZZI  18 112
M  ZZM  19 1
M  ZZI  19 112
M  ZZM  20 5
M  ZZI  20 1
M  ZZM  21 5
M  ZZI  21 1
M  ZZM  22 5
M  ZZI  22 1
M  ZZM  23 5
M  ZZI  23 1
M  ZZM  24 5
M  ZZI  24 1
M  ZZM  25 28
M  ZZI  25 11
M  ZZM  26 5
M  ZZI  26 1
M  ZZM  27 5
M  ZZI  27 1
M  ZZM  28 5
M  ZZI  28 1
M  ZZM  29 5
M  ZZI  29 1
M  END
> <IX>
1

> <NAME>
Cereblon_2VTI_8.pdb

> <Score>
-12.763969

> <Natom>
29

> <Nflex>
1

> <Hbond>
-3.814979

> <Hphob>
-3.395862

> <VwInt>
-18.144901

> <Dsolv>
13.105489

> <SolEl>
7.228206

> <Eintl>
3.513872

> <RecConf>
ND

> <projPath>
Cereblon_maps/

> <NAME_>
Cereblon_2VTI_8.pdb

$$$$
