Cereblon_5J8O_3.pdb
  MOLSOFT 04032206253D

 31 33  0  0  1  0  0  0  0  0999 V2000
   78.8142   41.6787   43.8198 N   0  0  0  0  0  0  0  0  0  0  0  0
   78.9080   42.4233   42.6335 C   0  0  0  0  0  0  0  0  0  0  0  0
   78.1016   42.1582   41.5394 C   0  0  0  0  0  0  0  0  0  0  0  0
   77.1812   41.0473   41.3322 C   0  0  0  0  0  0  0  0  0  0  0  0
   77.0003   40.1644   42.1576 O   0  0  0  0  0  0  0  0  0  0  0  0
   76.6469   41.2116   40.0696 N   0  0  0  0  0  0  0  0  0  0  0  0
   77.1678   42.3326   39.4559 C   0  0  0  0  0  0  0  0  0  0  0  0
   76.9547   42.7552   38.3269 O   0  0  0  0  0  0  0  0  0  0  0  0
   78.0989   42.9280   40.4157 C   0  0  0  0  0  0  0  0  0  0  0  0
   78.9099   44.0377   40.2954 C   0  0  0  0  0  0  0  0  0  0  0  0
   79.7253   44.3380   41.3805 C   0  0  0  0  0  0  0  0  0  0  0  0
   79.7123   43.5549   42.5363 C   0  0  0  0  0  0  0  0  0  0  0  0
   75.6276   40.3751   39.4324 C   0  0  2  0  0  0  0  0  0  0  0  0
   74.2562   40.9539   39.7362 C   0  0  0  0  0  0  0  0  0  0  0  0
   74.0857   42.1342   39.9924 O   0  0  0  0  0  0  0  0  0  0  0  0
   73.1955   40.0885   39.6231 N   0  0  0  0  0  0  0  0  0  0  0  0
   73.2200   38.7502   39.3135 C   0  0  0  0  0  0  0  0  0  0  0  0
   72.1951   38.0967   39.2076 O   0  0  0  0  0  0  0  0  0  0  0  0
   74.5828   38.1513   39.0590 C   0  0  0  0  0  0  0  0  0  0  0  0
   75.6607   38.9007   39.8222 C   0  0  0  0  0  0  0  0  0  0  0  0
   79.5547   41.7626   44.5127 H   0  0  0  0  0  0  0  0  0  0  0  0
   78.3249   40.7834   43.7772 H   0  0  0  0  0  0  0  0  0  0  0  0
   78.9018   44.6459   39.3986 H   0  0  0  0  0  0  0  0  0  0  0  0
   80.3733   45.2063   41.3365 H   0  0  0  0  0  0  0  0  0  0  0  0
   80.3431   43.8372   43.3737 H   0  0  0  0  0  0  0  0  0  0  0  0
   75.7627   40.4747   38.3541 H   0  0  0  0  0  0  0  0  0  0  0  0
   72.2804   40.4907   39.7843 H   0  0  0  0  0  0  0  0  0  0  0  0
   74.5688   37.1037   39.3762 H   0  0  0  0  0  0  0  0  0  0  0  0
   74.7699   38.1768   37.9811 H   0  0  0  0  0  0  0  0  0  0  0  0
   75.4759   38.7735   40.8928 H   0  0  0  0  0  0  0  0  0  0  0  0
   76.6455   38.4696   39.6148 H   0  0  0  0  0  0  0  0  0  0  0  0
  1  2  1  0  0  0  0
  1 21  1  0  0  0  0
  1 22  1  0  0  0  0
  2  3  1  0  0  0  0
  2 12  2  0  0  0  0
  3  9  2  0  0  0  0
  3  4  1  0  0  0  0
  4  5  2  0  0  0  0
  4  6  1  0  0  0  0
  6  7  1  0  0  0  0
 13  6  1  0  0  0  0
  7  8  2  0  0  0  0
  7  9  1  0  0  0  0
  9 10  1  0  0  0  0
 10 23  1  0  0  0  0
 10 11  2  0  0  0  0
 11 12  1  0  0  0  0
 11 24  1  0  0  0  0
 12 25  1  0  0  0  0
 13 26  1  0  0  0  0
 13 14  1  0  0  0  0
 13 20  1  0  0  0  0
 14 15  2  0  0  0  0
 14 16  1  0  0  0  0
 16 27  1  0  0  0  0
 16 17  1  0  0  0  0
 17 18  2  0  0  0  0
 17 19  1  0  0  0  0
 19 28  1  0  0  0  0
 19 29  1  0  0  0  0
 19 20  1  0  0  0  0
 20 30  1  0  0  0  0
 20 31  1  0  0  0  0
M  ZZC   1 n1
M  ZZC   2 c1
M  ZZC   3 c2
M  ZZC   4 c3
M  ZZC   5 o1
M  ZZC   6 n2
M  ZZC   7 c4
M  ZZC   8 o2
M  ZZC   9 c5
M  ZZC  10 c6
M  ZZC  11 c7
M  ZZC  12 c8
M  ZZC  13 c9
M  ZZC  14 c10
M  ZZC  15 o3
M  ZZC  16 n3
M  ZZC  17 c11
M  ZZC  18 o4
M  ZZC  19 c12
M  ZZC  20 c13
M  ZZC  21 h11
M  ZZC  22 h12
M  ZZC  23 h61
M  ZZC  24 h71
M  ZZC  25 h81
M  ZZC  26 h91
M  ZZC  27 h31
M  ZZC  28 h121
M  ZZC  29 h122
M  ZZC  30 h131
M  ZZC  31 h132
M  ZZM   1 40
M  ZZI   1 224
M  ZZM   2 37
M  ZZI   2 124
M  ZZM   3 37
M  ZZI   3 124
M  ZZM   4 3
M  ZZI   4 121
M  ZZM   5 7
M  ZZI   5 81
M  ZZM   6 10
M  ZZI   6 192
M  ZZM   7 3
M  ZZI   7 121
M  ZZM   8 7
M  ZZI   8 81
M  ZZM   9 37
M  ZZI   9 124
M  ZZM  10 37
M  ZZI  10 125
M  ZZM  11 37
M  ZZI  11 125
M  ZZM  12 37
M  ZZI  12 125
M  ZZM  13 1
M  ZZI  13 113
M  ZZM  14 3
M  ZZI  14 121
M  ZZM  15 7
M  ZZI  15 81
M  ZZM  16 10
M  ZZI  16 191
M  ZZM  17 3
M  ZZI  17 121
M  ZZM  18 7
M  ZZI  18 81
M  ZZM  19 1
M  ZZI  19 112
M  ZZM  20 1
M  ZZI  20 112
M  ZZM  21 28
M  ZZI  21 11
M  ZZM  22 28
M  ZZI  22 11
M  ZZM  23 5
M  ZZI  23 1
M  ZZM  24 5
M  ZZI  24 1
M  ZZM  25 5
M  ZZI  25 1
M  ZZM  26 5
M  ZZI  26 1
M  ZZM  27 28
M  ZZI  27 11
M  ZZM  28 5
M  ZZI  28 1
M  ZZM  29 5
M  ZZI  29 1
M  ZZM  30 5
M  ZZI  30 1
M  ZZM  31 5
M  ZZI  31 1
M  END
> <IX>
1

> <NAME>
Cereblon_5J8O_3.pdb

> <Score>
-18.171899

> <Natom>
31

> <Nflex>
1

> <Hbond>
-3.714325

> <Hphob>
-3.583192

> <VwInt>
-24.20326

> <Dsolv>
15.167533

> <SolEl>
7.327137

> <Eintl>
1.6963

> <RecConf>
ND

> <projPath>
Cereblon_maps/

> <NAME_>
Cereblon_5J8O_3.pdb

$$$$
