Cereblon_1FKH_4.pdb
  MOLSOFT 04032206193D

 30 32  0  0  1  0  0  0  0  0999 V2000
   75.6769   37.9098   39.7439 C   0  0  0  0  0  0  0  0  0  0  0  0
   74.9854   39.0119   39.2682 C   0  0  0  0  0  0  0  0  0  0  0  0
   75.3015   40.2619   39.7193 C   0  0  0  0  0  0  0  0  0  0  0  0
   74.4186   41.2245   39.0591 C   0  0  0  0  0  0  0  0  0  0  0  0
   74.4260   42.4192   39.3139 O   0  0  0  0  0  0  0  0  0  0  0  0
   73.6421   40.5070   38.1615 N   0  0  0  0  0  0  0  0  0  0  0  0
   72.6088   41.0346   37.2550 C   0  0  1  0  0  0  0  0  0  0  0  0
   71.2867   41.2557   37.9885 C   0  0  0  0  0  0  0  0  0  0  0  0
   70.9263   40.5791   38.9409 O   0  0  0  0  0  0  0  0  0  0  0  0
   70.4500   42.2074   37.4517 N   0  0  0  0  0  0  0  0  0  0  0  0
   70.6591   43.0341   36.3801 C   0  0  0  0  0  0  0  0  0  0  0  0
   69.8564   43.9058   36.0832 O   0  0  0  0  0  0  0  0  0  0  0  0
   71.9200   42.7732   35.5960 C   0  0  0  0  0  0  0  0  0  0  0  0
   73.0383   42.2970   36.5090 C   0  0  0  0  0  0  0  0  0  0  0  0
   73.8779   39.0776   38.2780 C   0  0  0  0  0  0  0  0  0  0  0  0
   76.3051   40.5047   40.6393 C   0  0  0  0  0  0  0  0  0  0  0  0
   77.0013   39.4051   41.1185 C   0  0  0  0  0  0  0  0  0  0  0  0
   76.6889   38.1233   40.6730 C   0  0  0  0  0  0  0  0  0  0  0  0
   75.4443   36.9067   39.4000 H   0  0  0  0  0  0  0  0  0  0  0  0
   72.4175   40.2539   36.5093 H   0  0  0  0  0  0  0  0  0  0  0  0
   69.5782   42.3560   37.9384 H   0  0  0  0  0  0  0  0  0  0  0  0
   71.6995   42.0349   34.8176 H   0  0  0  0  0  0  0  0  0  0  0  0
   72.2144   43.7045   35.1078 H   0  0  0  0  0  0  0  0  0  0  0  0
   73.9418   42.1001   35.9231 H   0  0  0  0  0  0  0  0  0  0  0  0
   73.2877   43.1003   37.2078 H   0  0  0  0  0  0  0  0  0  0  0  0
   74.1687   38.6681   37.3049 H   0  0  0  0  0  0  0  0  0  0  0  0
   72.9734   38.5872   38.6535 H   0  0  0  0  0  0  0  0  0  0  0  0
   76.5476   41.5104   40.9672 H   0  0  0  0  0  0  0  0  0  0  0  0
   77.7966   39.5474   41.8438 H   0  0  0  0  0  0  0  0  0  0  0  0
   77.2480   37.2758   41.0566 H   0  0  0  0  0  0  0  0  0  0  0  0
  1 19  1  0  0  0  0
  1 18  2  0  0  0  0
  1  2  1  0  0  0  0
  2  3  2  0  0  0  0
  2 15  1  0  0  0  0
  3 16  1  0  0  0  0
  3  4  1  0  0  0  0
  4  6  1  0  0  0  0
  4  5  2  0  0  0  0
  6 15  1  0  0  0  0
  7  6  1  0  0  0  0
  7 20  1  0  0  0  0
  7  8  1  0  0  0  0
  7 14  1  0  0  0  0
  8  9  2  0  0  0  0
  8 10  1  0  0  0  0
 10 21  1  0  0  0  0
 10 11  1  0  0  0  0
 11 12  2  0  0  0  0
 11 13  1  0  0  0  0
 13 22  1  0  0  0  0
 13 23  1  0  0  0  0
 13 14  1  0  0  0  0
 14 24  1  0  0  0  0
 14 25  1  0  0  0  0
 15 26  1  0  0  0  0
 15 27  1  0  0  0  0
 16 17  2  0  0  0  0
 16 28  1  0  0  0  0
 17 18  1  0  0  0  0
 17 29  1  0  0  0  0
 18 30  1  0  0  0  0
M  ZZC   1 c1
M  ZZC   2 c2
M  ZZC   3 c3
M  ZZC   4 c4
M  ZZC   5 o1
M  ZZC   6 n1
M  ZZC   7 c5
M  ZZC   8 c6
M  ZZC   9 o2
M  ZZC  10 n2
M  ZZC  11 c7
M  ZZC  12 o3
M  ZZC  13 c8
M  ZZC  14 c9
M  ZZC  15 c10
M  ZZC  16 c11
M  ZZC  17 c12
M  ZZC  18 c13
M  ZZC  19 h11
M  ZZC  20 h51
M  ZZC  21 h21
M  ZZC  22 h81
M  ZZC  23 h82
M  ZZC  24 h91
M  ZZC  25 h92
M  ZZC  26 h101
M  ZZC  27 h102
M  ZZC  28 h111
M  ZZC  29 h121
M  ZZC  30 h131
M  ZZM   1 37
M  ZZI   1 125
M  ZZM   2 37
M  ZZI   2 124
M  ZZM   3 37
M  ZZI   3 124
M  ZZM   4 3
M  ZZI   4 121
M  ZZM   5 7
M  ZZI   5 81
M  ZZM   6 10
M  ZZI   6 192
M  ZZM   7 1
M  ZZI   7 113
M  ZZM   8 3
M  ZZI   8 121
M  ZZM   9 7
M  ZZI   9 81
M  ZZM  10 10
M  ZZI  10 191
M  ZZM  11 3
M  ZZI  11 121
M  ZZM  12 7
M  ZZI  12 81
M  ZZM  13 1
M  ZZI  13 112
M  ZZM  14 1
M  ZZI  14 112
M  ZZM  15 1
M  ZZI  15 112
M  ZZM  16 37
M  ZZI  16 125
M  ZZM  17 37
M  ZZI  17 125
M  ZZM  18 37
M  ZZI  18 125
M  ZZM  19 5
M  ZZI  19 1
M  ZZM  20 5
M  ZZI  20 1
M  ZZM  21 28
M  ZZI  21 11
M  ZZM  22 5
M  ZZI  22 1
M  ZZM  23 5
M  ZZI  23 1
M  ZZM  24 5
M  ZZI  24 1
M  ZZM  25 5
M  ZZI  25 1
M  ZZM  26 5
M  ZZI  26 1
M  ZZM  27 5
M  ZZI  27 1
M  ZZM  28 5
M  ZZI  28 1
M  ZZM  29 5
M  ZZI  29 1
M  ZZM  30 5
M  ZZI  30 1
M  END
> <IX>
1

> <NAME>
Cereblon_1FKH_4.pdb

> <Score>
-20.77627

> <Natom>
30

> <Nflex>
1

> <Hbond>
-4.629737

> <Hphob>
-3.617942

> <VwInt>
-21.857487

> <Dsolv>
13.264593

> <SolEl>
5.524112

> <Eintl>
1.706855

> <RecConf>
ND

> <projPath>
Cereblon_maps/

> <NAME_>
Cereblon_1FKH_4.pdb

$$$$
