Cereblon_2GQG_26.pdb
  MOLSOFT 04032206193D

 29 31  0  0  1  0  0  0  0  0999 V2000
   79.0028   42.4902   42.6724 C   0  0  0  0  0  0  0  0  0  0  0  0
   78.1853   42.1949   41.5959 C   0  0  0  0  0  0  0  0  0  0  0  0
   77.2672   41.0772   41.4104 C   0  0  0  0  0  0  0  0  0  0  0  0
   77.0863   40.2169   42.2584 O   0  0  0  0  0  0  0  0  0  0  0  0
   76.7266   41.2202   40.1457 N   0  0  0  0  0  0  0  0  0  0  0  0
   77.2228   42.3474   39.5227 C   0  0  0  0  0  0  0  0  0  0  0  0
   76.9875   42.7651   38.3963 O   0  0  0  0  0  0  0  0  0  0  0  0
   78.1582   42.9582   40.4676 C   0  0  0  0  0  0  0  0  0  0  0  0
   78.9570   44.0745   40.3260 C   0  0  0  0  0  0  0  0  0  0  0  0
   79.7994   44.3834   41.3882 C   0  0  0  0  0  0  0  0  0  0  0  0
   79.8220   43.6056   42.5465 C   0  0  0  0  0  0  0  0  0  0  0  0
   75.7186   40.3651   39.5127 C   0  0  2  0  0  0  0  0  0  0  0  0
   74.3386   40.9337   39.8018 C   0  0  0  0  0  0  0  0  0  0  0  0
   74.1515   42.1198   40.0167 O   0  0  0  0  0  0  0  0  0  0  0  0
   73.2886   40.0515   39.7256 N   0  0  0  0  0  0  0  0  0  0  0  0
   73.3269   38.7057   39.4548 C   0  0  0  0  0  0  0  0  0  0  0  0
   72.3114   38.0318   39.3987 O   0  0  0  0  0  0  0  0  0  0  0  0
   74.6916   38.1245   39.1777 C   0  0  0  0  0  0  0  0  0  0  0  0
   75.7736   38.8946   39.9140 C   0  0  0  0  0  0  0  0  0  0  0  0
   79.0128   41.8746   43.5677 H   0  0  0  0  0  0  0  0  0  0  0  0
   78.9267   44.6757   39.4251 H   0  0  0  0  0  0  0  0  0  0  0  0
   80.4472   45.2496   41.3196 H   0  0  0  0  0  0  0  0  0  0  0  0
   80.4880   43.8744   43.3615 H   0  0  0  0  0  0  0  0  0  0  0  0
   75.8582   40.4533   38.4332 H   0  0  0  0  0  0  0  0  0  0  0  0
   72.3699   40.4446   39.8891 H   0  0  0  0  0  0  0  0  0  0  0  0
   74.6982   37.0788   39.5017 H   0  0  0  0  0  0  0  0  0  0  0  0
   74.8522   38.1469   38.0954 H   0  0  0  0  0  0  0  0  0  0  0  0
   76.7593   38.4736   39.6904 H   0  0  0  0  0  0  0  0  0  0  0  0
   75.6113   38.7749   40.9889 H   0  0  0  0  0  0  0  0  0  0  0  0
  1 20  1  0  0  0  0
  1  2  1  0  0  0  0
  1 11  2  0  0  0  0
  2  3  1  0  0  0  0
  2  8  2  0  0  0  0
  3  4  2  0  0  0  0
  3  5  1  0  0  0  0
  5  6  1  0  0  0  0
 12  5  1  0  0  0  0
  6  7  2  0  0  0  0
  6  8  1  0  0  0  0
  8  9  1  0  0  0  0
  9 21  1  0  0  0  0
  9 10  2  0  0  0  0
 10 22  1  0  0  0  0
 10 11  1  0  0  0  0
 11 23  1  0  0  0  0
 12 24  1  0  0  0  0
 12 13  1  0  0  0  0
 12 19  1  0  0  0  0
 13 14  2  0  0  0  0
 13 15  1  0  0  0  0
 15 25  1  0  0  0  0
 15 16  1  0  0  0  0
 16 17  2  0  0  0  0
 16 18  1  0  0  0  0
 18 26  1  0  0  0  0
 18 27  1  0  0  0  0
 18 19  1  0  0  0  0
 19 28  1  0  0  0  0
 19 29  1  0  0  0  0
M  ZZC   1 c1
M  ZZC   2 c2
M  ZZC   3 c3
M  ZZC   4 o1
M  ZZC   5 n1
M  ZZC   6 c4
M  ZZC   7 o2
M  ZZC   8 c5
M  ZZC   9 c6
M  ZZC  10 c7
M  ZZC  11 c8
M  ZZC  12 c9
M  ZZC  13 c10
M  ZZC  14 o3
M  ZZC  15 n2
M  ZZC  16 c11
M  ZZC  17 o4
M  ZZC  18 c12
M  ZZC  19 c13
M  ZZC  20 h11
M  ZZC  21 h61
M  ZZC  22 h71
M  ZZC  23 h81
M  ZZC  24 h91
M  ZZC  25 h21
M  ZZC  26 h121
M  ZZC  27 h122
M  ZZC  28 h131
M  ZZC  29 h132
M  ZZM   1 37
M  ZZI   1 125
M  ZZM   2 37
M  ZZI   2 124
M  ZZM   3 3
M  ZZI   3 121
M  ZZM   4 7
M  ZZI   4 81
M  ZZM   5 10
M  ZZI   5 192
M  ZZM   6 3
M  ZZI   6 121
M  ZZM   7 7
M  ZZI   7 81
M  ZZM   8 37
M  ZZI   8 124
M  ZZM   9 37
M  ZZI   9 125
M  ZZM  10 37
M  ZZI  10 125
M  ZZM  11 37
M  ZZI  11 125
M  ZZM  12 1
M  ZZI  12 113
M  ZZM  13 3
M  ZZI  13 121
M  ZZM  14 7
M  ZZI  14 81
M  ZZM  15 10
M  ZZI  15 191
M  ZZM  16 3
M  ZZI  16 121
M  ZZM  17 7
M  ZZI  17 81
M  ZZM  18 1
M  ZZI  18 112
M  ZZM  19 1
M  ZZI  19 112
M  ZZM  20 5
M  ZZI  20 1
M  ZZM  21 5
M  ZZI  21 1
M  ZZM  22 5
M  ZZI  22 1
M  ZZM  23 5
M  ZZI  23 1
M  ZZM  24 5
M  ZZI  24 1
M  ZZM  25 28
M  ZZI  25 11
M  ZZM  26 5
M  ZZI  26 1
M  ZZM  27 5
M  ZZI  27 1
M  ZZM  28 5
M  ZZI  28 1
M  ZZM  29 5
M  ZZI  29 1
M  END
> <IX>
1

> <NAME>
Cereblon_2GQG_26.pdb

> <Score>
-19.171867

> <Natom>
29

> <Nflex>
1

> <Hbond>
-3.309391

> <Hphob>
-3.529888

> <VwInt>
-22.806099

> <Dsolv>
12.098595

> <SolEl>
5.767464

> <Eintl>
1.485908

> <RecConf>
ND

> <projPath>
Cereblon_maps/

> <NAME_>
Cereblon_2GQG_26.pdb

$$$$
