Cereblon_5VBP_30.pdb
  MOLSOFT 04032206283D

 30 32  0  0  1  0  0  0  0  0999 V2000
   77.6009   41.0759   42.0834 C   0  0  0  0  0  0  0  0  0  0  0  0
   76.9673   41.1407   40.8535 C   0  0  0  0  0  0  0  0  0  0  0  0
   77.2619   42.1483   39.9747 C   0  0  0  0  0  0  0  0  0  0  0  0
   76.4109   41.9838   38.7903 C   0  0  0  0  0  0  0  0  0  0  0  0
   76.4465   42.6997   37.7993 O   0  0  0  0  0  0  0  0  0  0  0  0
   75.5723   40.9149   39.0492 N   0  0  0  0  0  0  0  0  0  0  0  0
   74.2655   40.7553   38.3917 C   0  0  2  0  0  0  0  0  0  0  0  0
   73.2417   41.5307   39.2042 C   0  0  0  0  0  0  0  0  0  0  0  0
   73.5615   42.3831   40.0163 O   0  0  0  0  0  0  0  0  0  0  0  0
   71.9237   41.2503   38.9364 N   0  0  0  0  0  0  0  0  0  0  0  0
   71.4156   40.2416   38.1541 C   0  0  0  0  0  0  0  0  0  0  0  0
   70.2137   40.1287   37.9623 O   0  0  0  0  0  0  0  0  0  0  0  0
   72.4370   39.3217   37.5168 C   0  0  0  0  0  0  0  0  0  0  0  0
   73.7624   39.3213   38.2703 C   0  0  0  0  0  0  0  0  0  0  0  0
   75.9214   40.2498   40.2901 C   0  0  0  0  0  0  0  0  0  0  0  0
   78.1880   43.1404   40.2500 C   0  0  0  0  0  0  0  0  0  0  0  0
   78.8353   43.0729   41.4771 C   0  0  0  0  0  0  0  0  0  0  0  0
   78.5357   42.0581   42.3858 C   0  0  0  0  0  0  0  0  0  0  0  0
   77.3697   40.2923   42.7985 H   0  0  0  0  0  0  0  0  0  0  0  0
   74.3158   41.2406   37.4096 H   0  0  0  0  0  0  0  0  0  0  0  0
   71.2492   41.8578   39.3846 H   0  0  0  0  0  0  0  0  0  0  0  0
   72.0239   38.3083   37.4962 H   0  0  0  0  0  0  0  0  0  0  0  0
   72.5841   39.6472   36.4811 H   0  0  0  0  0  0  0  0  0  0  0  0
   73.6194   38.8786   39.2631 H   0  0  0  0  0  0  0  0  0  0  0  0
   74.4885   38.6922   37.7482 H   0  0  0  0  0  0  0  0  0  0  0  0
   76.3019   39.2466   40.0697 H   0  0  0  0  0  0  0  0  0  0  0  0
   75.0480   40.2059   40.9364 H   0  0  0  0  0  0  0  0  0  0  0  0
   78.3955   43.9382   39.5444 H   0  0  0  0  0  0  0  0  0  0  0  0
   79.5668   43.8307   41.7394 H   0  0  0  0  0  0  0  0  0  0  0  0
   79.0399   42.0352   43.3473 H   0  0  0  0  0  0  0  0  0  0  0  0
  1 19  1  0  0  0  0
  1 18  2  0  0  0  0
  1  2  1  0  0  0  0
  2  3  2  0  0  0  0
  2 15  1  0  0  0  0
  3 16  1  0  0  0  0
  3  4  1  0  0  0  0
  4  6  1  0  0  0  0
  4  5  2  0  0  0  0
  6 15  1  0  0  0  0
  7  6  1  0  0  0  0
  7 20  1  0  0  0  0
  7  8  1  0  0  0  0
  7 14  1  0  0  0  0
  8  9  2  0  0  0  0
  8 10  1  0  0  0  0
 10 21  1  0  0  0  0
 10 11  1  0  0  0  0
 11 12  2  0  0  0  0
 11 13  1  0  0  0  0
 13 22  1  0  0  0  0
 13 23  1  0  0  0  0
 13 14  1  0  0  0  0
 14 24  1  0  0  0  0
 14 25  1  0  0  0  0
 15 26  1  0  0  0  0
 15 27  1  0  0  0  0
 16 17  2  0  0  0  0
 16 28  1  0  0  0  0
 17 18  1  0  0  0  0
 17 29  1  0  0  0  0
 18 30  1  0  0  0  0
M  ZZC   1 c1
M  ZZC   2 c2
M  ZZC   3 c3
M  ZZC   4 c4
M  ZZC   5 o1
M  ZZC   6 n1
M  ZZC   7 c5
M  ZZC   8 c6
M  ZZC   9 o2
M  ZZC  10 n2
M  ZZC  11 c7
M  ZZC  12 o3
M  ZZC  13 c8
M  ZZC  14 c9
M  ZZC  15 c10
M  ZZC  16 c11
M  ZZC  17 c12
M  ZZC  18 c13
M  ZZC  19 h11
M  ZZC  20 h51
M  ZZC  21 h21
M  ZZC  22 h81
M  ZZC  23 h82
M  ZZC  24 h91
M  ZZC  25 h92
M  ZZC  26 h101
M  ZZC  27 h102
M  ZZC  28 h111
M  ZZC  29 h121
M  ZZC  30 h131
M  ZZM   1 37
M  ZZI   1 125
M  ZZM   2 37
M  ZZI   2 124
M  ZZM   3 37
M  ZZI   3 124
M  ZZM   4 3
M  ZZI   4 121
M  ZZM   5 7
M  ZZI   5 81
M  ZZM   6 10
M  ZZI   6 192
M  ZZM   7 1
M  ZZI   7 113
M  ZZM   8 3
M  ZZI   8 121
M  ZZM   9 7
M  ZZI   9 81
M  ZZM  10 10
M  ZZI  10 191
M  ZZM  11 3
M  ZZI  11 121
M  ZZM  12 7
M  ZZI  12 81
M  ZZM  13 1
M  ZZI  13 112
M  ZZM  14 1
M  ZZI  14 112
M  ZZM  15 1
M  ZZI  15 112
M  ZZM  16 37
M  ZZI  16 125
M  ZZM  17 37
M  ZZI  17 125
M  ZZM  18 37
M  ZZI  18 125
M  ZZM  19 5
M  ZZI  19 1
M  ZZM  20 5
M  ZZI  20 1
M  ZZM  21 28
M  ZZI  21 11
M  ZZM  22 5
M  ZZI  22 1
M  ZZM  23 5
M  ZZI  23 1
M  ZZM  24 5
M  ZZI  24 1
M  ZZM  25 5
M  ZZI  25 1
M  ZZM  26 5
M  ZZI  26 1
M  ZZM  27 5
M  ZZI  27 1
M  ZZM  28 5
M  ZZI  28 1
M  ZZM  29 5
M  ZZI  29 1
M  ZZM  30 5
M  ZZI  30 1
M  END
> <IX>
1

> <NAME>
Cereblon_5VBP_30.pdb

> <Score>
-15.572021

> <Natom>
30

> <Nflex>
1

> <Hbond>
-4.251362

> <Hphob>
-3.713739

> <VwInt>
-19.367381

> <Dsolv>
13.995111

> <SolEl>
5.306361

> <Eintl>
4.068301

> <RecConf>
ND

> <projPath>
Cereblon_maps/

> <NAME_>
Cereblon_5VBP_30.pdb

$$$$
