Cereblon_1FKH_5.pdb
  MOLSOFT 04032206193D

 30 32  0  0  1  0  0  0  0  0999 V2000
   75.7081   37.9221   39.7416 C   0  0  0  0  0  0  0  0  0  0  0  0
   74.9965   39.0127   39.2715 C   0  0  0  0  0  0  0  0  0  0  0  0
   75.2973   40.2678   39.7205 C   0  0  0  0  0  0  0  0  0  0  0  0
   74.3945   41.2173   39.0688 C   0  0  0  0  0  0  0  0  0  0  0  0
   74.3970   42.4140   39.3141 O   0  0  0  0  0  0  0  0  0  0  0  0
   73.6129   40.4870   38.1860 N   0  0  0  0  0  0  0  0  0  0  0  0
   72.5841   41.0014   37.2672 C   0  0  1  0  0  0  0  0  0  0  0  0
   71.2691   41.2550   38.0022 C   0  0  0  0  0  0  0  0  0  0  0  0
   70.9024   40.5949   38.9637 O   0  0  0  0  0  0  0  0  0  0  0  0
   70.4458   42.2142   37.4580 N   0  0  0  0  0  0  0  0  0  0  0  0
   70.6559   43.0141   36.3662 C   0  0  0  0  0  0  0  0  0  0  0  0
   69.8612   43.8883   36.0553 O   0  0  0  0  0  0  0  0  0  0  0  0
   71.9077   42.7196   35.5793 C   0  0  0  0  0  0  0  0  0  0  0  0
   73.0254   42.2431   36.4927 C   0  0  0  0  0  0  0  0  0  0  0  0
   73.8845   39.0632   38.2859 C   0  0  0  0  0  0  0  0  0  0  0  0
   76.3065   40.5258   40.6307 C   0  0  0  0  0  0  0  0  0  0  0  0
   77.0227   39.4364   41.1041 C   0  0  0  0  0  0  0  0  0  0  0  0
   76.7245   38.1501   40.6620 C   0  0  0  0  0  0  0  0  0  0  0  0
   75.4871   36.9159   39.3995 H   0  0  0  0  0  0  0  0  0  0  0  0
   72.3815   40.2037   36.5430 H   0  0  0  0  0  0  0  0  0  0  0  0
   69.5788   42.3804   37.9473 H   0  0  0  0  0  0  0  0  0  0  0  0
   71.6714   41.9680   34.8184 H   0  0  0  0  0  0  0  0  0  0  0  0
   72.2144   43.6350   35.0688 H   0  0  0  0  0  0  0  0  0  0  0  0
   73.9209   42.0226   35.9029 H   0  0  0  0  0  0  0  0  0  0  0  0
   73.2934   43.0562   37.1735 H   0  0  0  0  0  0  0  0  0  0  0  0
   74.1833   38.6722   37.3077 H   0  0  0  0  0  0  0  0  0  0  0  0
   72.9916   38.5490   38.6576 H   0  0  0  0  0  0  0  0  0  0  0  0
   76.5383   41.5351   40.9549 H   0  0  0  0  0  0  0  0  0  0  0  0
   77.8226   39.5903   41.8220 H   0  0  0  0  0  0  0  0  0  0  0  0
   77.2992   37.3109   41.0409 H   0  0  0  0  0  0  0  0  0  0  0  0
  1 19  1  0  0  0  0
  1 18  2  0  0  0  0
  1  2  1  0  0  0  0
  2  3  2  0  0  0  0
  2 15  1  0  0  0  0
  3 16  1  0  0  0  0
  3  4  1  0  0  0  0
  4  6  1  0  0  0  0
  4  5  2  0  0  0  0
  6 15  1  0  0  0  0
  7  6  1  0  0  0  0
  7 20  1  0  0  0  0
  7  8  1  0  0  0  0
  7 14  1  0  0  0  0
  8  9  2  0  0  0  0
  8 10  1  0  0  0  0
 10 21  1  0  0  0  0
 10 11  1  0  0  0  0
 11 12  2  0  0  0  0
 11 13  1  0  0  0  0
 13 22  1  0  0  0  0
 13 23  1  0  0  0  0
 13 14  1  0  0  0  0
 14 24  1  0  0  0  0
 14 25  1  0  0  0  0
 15 26  1  0  0  0  0
 15 27  1  0  0  0  0
 16 17  2  0  0  0  0
 16 28  1  0  0  0  0
 17 18  1  0  0  0  0
 17 29  1  0  0  0  0
 18 30  1  0  0  0  0
M  ZZC   1 c1
M  ZZC   2 c2
M  ZZC   3 c3
M  ZZC   4 c4
M  ZZC   5 o1
M  ZZC   6 n1
M  ZZC   7 c5
M  ZZC   8 c6
M  ZZC   9 o2
M  ZZC  10 n2
M  ZZC  11 c7
M  ZZC  12 o3
M  ZZC  13 c8
M  ZZC  14 c9
M  ZZC  15 c10
M  ZZC  16 c11
M  ZZC  17 c12
M  ZZC  18 c13
M  ZZC  19 h11
M  ZZC  20 h51
M  ZZC  21 h21
M  ZZC  22 h81
M  ZZC  23 h82
M  ZZC  24 h91
M  ZZC  25 h92
M  ZZC  26 h101
M  ZZC  27 h102
M  ZZC  28 h111
M  ZZC  29 h121
M  ZZC  30 h131
M  ZZM   1 37
M  ZZI   1 125
M  ZZM   2 37
M  ZZI   2 124
M  ZZM   3 37
M  ZZI   3 124
M  ZZM   4 3
M  ZZI   4 121
M  ZZM   5 7
M  ZZI   5 81
M  ZZM   6 10
M  ZZI   6 192
M  ZZM   7 1
M  ZZI   7 113
M  ZZM   8 3
M  ZZI   8 121
M  ZZM   9 7
M  ZZI   9 81
M  ZZM  10 10
M  ZZI  10 191
M  ZZM  11 3
M  ZZI  11 121
M  ZZM  12 7
M  ZZI  12 81
M  ZZM  13 1
M  ZZI  13 112
M  ZZM  14 1
M  ZZI  14 112
M  ZZM  15 1
M  ZZI  15 112
M  ZZM  16 37
M  ZZI  16 125
M  ZZM  17 37
M  ZZI  17 125
M  ZZM  18 37
M  ZZI  18 125
M  ZZM  19 5
M  ZZI  19 1
M  ZZM  20 5
M  ZZI  20 1
M  ZZM  21 28
M  ZZI  21 11
M  ZZM  22 5
M  ZZI  22 1
M  ZZM  23 5
M  ZZI  23 1
M  ZZM  24 5
M  ZZI  24 1
M  ZZM  25 5
M  ZZI  25 1
M  ZZM  26 5
M  ZZI  26 1
M  ZZM  27 5
M  ZZI  27 1
M  ZZM  28 5
M  ZZI  28 1
M  ZZM  29 5
M  ZZI  29 1
M  ZZM  30 5
M  ZZI  30 1
M  END
> <IX>
1

> <NAME>
Cereblon_1FKH_5.pdb

> <Score>
-20.457184

> <Natom>
30

> <Nflex>
1

> <Hbond>
-4.60711

> <Hphob>
-3.663185

> <VwInt>
-22.023627

> <Dsolv>
13.274166

> <SolEl>
6.24027

> <Eintl>
1.67094

> <RecConf>
ND

> <projPath>
Cereblon_maps/

> <NAME_>
Cereblon_1FKH_5.pdb

$$$$
