cIAP1_6PSJ_5.pdb
  MOLSOFT 04032206433D

 51 51  0  0  1  0  0  0  0  0999 V2000
   25.7830   22.8681   14.4702 O   0  0  0  0  0  0  0  0  0  0  0  0
   24.9146   23.6985   14.6924 C   0  0  0  0  0  0  0  0  0  0  0  0
   23.5984   23.5563   14.3018 N   0  0  0  0  0  0  0  0  0  0  0  0
   23.1204   22.3922   13.5536 C   0  0  2  0  0  0  0  0  0  0  0  0
   23.2576   22.6882   12.0574 C   0  0  0  0  0  0  0  0  0  0  0  0
   22.3094   22.9808   11.3426 O   0  0  0  0  0  0  0  0  0  0  0  0
   24.5557   22.5828   11.5939 N   0  0  0  0  0  0  0  0  0  0  0  0
   24.8982   22.7908   10.2073 C   0  0  0  0  0  0  0  0  0  0  0  0
   21.6718   22.0478   13.9321 C   0  0  0  0  0  0  0  0  0  0  0  0
   21.4952   21.5431   15.3774 C   0  0  0  0  0  0  0  0  0  0  0  0
   22.2553   20.2425   15.6328 C   0  0  0  0  0  0  0  0  0  0  0  0
   20.0154   21.3306   15.6901 C   0  0  0  0  0  0  0  0  0  0  0  0
   25.2130   24.9895   15.4387 C   0  0  1  0  0  0  0  0  0  0  0  0
   24.0296   25.7704   15.6578 O   0  0  0  0  0  0  0  0  0  0  0  0
   25.8852   24.6710   16.7933 C   0  0  2  0  0  0  0  0  0  0  0  0
   24.8970   23.9413   17.6696 N   0  3  0  0  0  0  0  0  0  0  0  0
   26.3327   25.9265   17.5653 C   0  0  0  0  0  0  0  0  0  0  0  0
   27.5484   26.5973   16.9766 C   0  0  0  0  0  0  0  0  0  0  0  0
   28.8306   26.1878   17.3291 C   0  0  0  0  0  0  0  0  0  0  0  0
   29.9433   26.8090   16.7866 C   0  0  0  0  0  0  0  0  0  0  0  0
   29.7923   27.8411   15.8791 C   0  0  0  0  0  0  0  0  0  0  0  0
   28.5237   28.2535   15.5197 C   0  0  0  0  0  0  0  0  0  0  0  0
   27.4142   27.6379   16.0660 C   0  0  0  0  0  0  0  0  0  0  0  0
   22.9423   24.3042   14.5096 H   0  0  0  0  0  0  0  0  0  0  0  0
   23.7757   21.5421   13.7662 H   0  0  0  0  0  0  0  0  0  0  0  0
   25.3073   22.4065   12.2557 H   0  0  0  0  0  0  0  0  0  0  0  0
   24.0569   22.5271    9.5602 H   0  0  0  0  0  0  0  0  0  0  0  0
   25.7620   22.1671    9.9640 H   0  0  0  0  0  0  0  0  0  0  0  0
   25.1563   23.8443   10.0688 H   0  0  0  0  0  0  0  0  0  0  0  0
   21.0451   22.9323   13.7776 H   0  0  0  0  0  0  0  0  0  0  0  0
   21.2860   21.2912   13.2415 H   0  0  0  0  0  0  0  0  0  0  0  0
   21.8757   22.2976   16.0739 H   0  0  0  0  0  0  0  0  0  0  0  0
   22.0395   19.8533   16.6325 H   0  0  0  0  0  0  0  0  0  0  0  0
   23.3369   20.3900   15.5779 H   0  0  0  0  0  0  0  0  0  0  0  0
   21.9798   19.4708   14.9067 H   0  0  0  0  0  0  0  0  0  0  0  0
   19.4604   22.2686   15.6216 H   0  0  0  0  0  0  0  0  0  0  0  0
   19.8773   20.9507   16.7067 H   0  0  0  0  0  0  0  0  0  0  0  0
   19.5570   20.6151   14.9998 H   0  0  0  0  0  0  0  0  0  0  0  0
   25.8848   25.5729   14.8020 H   0  0  0  0  0  0  0  0  0  0  0  0
   23.7940   26.2188   14.8250 H   0  0  0  0  0  0  0  0  0  0  0  0
   26.7270   23.9818   16.6632 H   0  0  0  0  0  0  0  0  0  0  0  0
   25.3173   23.7209   18.5858 H   0  0  0  0  0  0  0  0  0  0  0  0
   24.5902   23.0522   17.2529 H   0  0  0  0  0  0  0  0  0  0  0  0
   24.0478   24.4921   17.8529 H   0  0  0  0  0  0  0  0  0  0  0  0
   25.5151   26.6491   17.6331 H   0  0  0  0  0  0  0  0  0  0  0  0
   26.5620   25.6663   18.6049 H   0  0  0  0  0  0  0  0  0  0  0  0
   28.9741   25.3793   18.0396 H   0  0  0  0  0  0  0  0  0  0  0  0
   30.9387   26.4844   17.0731 H   0  0  0  0  0  0  0  0  0  0  0  0
   30.6654   28.3252   15.4524 H   0  0  0  0  0  0  0  0  0  0  0  0
   28.3950   29.0596   14.8069 H   0  0  0  0  0  0  0  0  0  0  0  0
   26.4302   27.9733   15.7663 H   0  0  0  0  0  0  0  0  0  0  0  0
  1  2  2  0  0  0  0
  2  3  1  0  0  0  0
 13  2  1  0  0  0  0
  4  3  1  0  0  0  0
  3 24  1  0  0  0  0
  4  5  1  0  0  0  0
  4 25  1  0  0  0  0
  4  9  1  0  0  0  0
  5  7  1  0  0  0  0
  5  6  2  0  0  0  0
  7  8  1  0  0  0  0
  7 26  1  0  0  0  0
  8 27  1  0  0  0  0
  8 28  1  0  0  0  0
  8 29  1  0  0  0  0
  9 30  1  0  0  0  0
  9 31  1  0  0  0  0
  9 10  1  0  0  0  0
 10 32  1  0  0  0  0
 10 12  1  0  0  0  0
 10 11  1  0  0  0  0
 11 33  1  0  0  0  0
 11 34  1  0  0  0  0
 11 35  1  0  0  0  0
 12 36  1  0  0  0  0
 12 37  1  0  0  0  0
 12 38  1  0  0  0  0
 13 39  1  0  0  0  0
 13 14  1  0  0  0  0
 13 15  1  0  0  0  0
 14 40  1  0  0  0  0
 15 41  1  0  0  0  0
 15 16  1  0  0  0  0
 15 17  1  0  0  0  0
 16 42  1  0  0  0  0
 16 43  1  0  0  0  0
 16 44  1  0  0  0  0
 17 45  1  0  0  0  0
 17 46  1  0  0  0  0
 17 18  1  0  0  0  0
 18 19  1  0  0  0  0
 18 23  2  0  0  0  0
 19 47  1  0  0  0  0
 19 20  2  0  0  0  0
 20 48  1  0  0  0  0
 20 21  1  0  0  0  0
 21 49  1  0  0  0  0
 21 22  2  0  0  0  0
 22 50  1  0  0  0  0
 22 23  1  0  0  0  0
 23 51  1  0  0  0  0
M  ZZC   1 o1
M  ZZC   2 c1
M  ZZC   3 n1
M  ZZC   4 c2
M  ZZC   5 c3
M  ZZC   6 o2
M  ZZC   7 n2
M  ZZC   8 c4
M  ZZC   9 c5
M  ZZC  10 c6
M  ZZC  11 c7
M  ZZC  12 c8
M  ZZC  13 c9
M  ZZC  14 o3
M  ZZC  15 c10
M  ZZC  16 n3
M  ZZC  17 c11
M  ZZC  18 c12
M  ZZC  19 c13
M  ZZC  20 c14
M  ZZC  21 c15
M  ZZC  22 c16
M  ZZC  23 c17
M  ZZC  24 h11
M  ZZC  25 h21
M  ZZC  26 h01
M  ZZC  27 h41
M  ZZC  28 h42
M  ZZC  29 h43
M  ZZC  30 h51
M  ZZC  31 h52
M  ZZC  32 h61
M  ZZC  33 h71
M  ZZC  34 h72
M  ZZC  35 h73
M  ZZC  36 h81
M  ZZC  37 h82
M  ZZC  38 h83
M  ZZC  39 h91
M  ZZC  40 h31
M  ZZC  41 h101
M  ZZC  42 h02
M  ZZC  43 h32
M  ZZC  44 h33
M  ZZC  45 h111
M  ZZC  46 h112
M  ZZC  47 h131
M  ZZC  48 h141
M  ZZC  49 h151
M  ZZC  50 h161
M  ZZC  51 h171
M  ZZM   1 7
M  ZZI   1 81
M  ZZM   2 3
M  ZZI   2 121
M  ZZM   3 10
M  ZZI   3 211
M  ZZM   4 1
M  ZZI   4 113
M  ZZM   5 3
M  ZZI   5 121
M  ZZM   6 7
M  ZZI   6 81
M  ZZM   7 10
M  ZZI   7 211
M  ZZM   8 1
M  ZZI   8 111
M  ZZM   9 1
M  ZZI   9 112
M  ZZM  10 1
M  ZZI  10 113
M  ZZM  11 1
M  ZZI  11 111
M  ZZM  12 1
M  ZZI  12 111
M  ZZM  13 1
M  ZZI  13 113
M  ZZM  14 6
M  ZZI  14 60
M  ZZM  15 1
M  ZZI  15 113
M  ZZM  16 34
M  ZZI  16 231
M  ZZM  17 1
M  ZZI  17 112
M  ZZM  18 37
M  ZZI  18 124
M  ZZM  19 37
M  ZZI  19 125
M  ZZM  20 37
M  ZZI  20 125
M  ZZM  21 37
M  ZZI  21 125
M  ZZM  22 37
M  ZZI  22 125
M  ZZM  23 37
M  ZZI  23 125
M  ZZM  24 28
M  ZZI  24 11
M  ZZM  25 5
M  ZZI  25 1
M  ZZM  26 28
M  ZZI  26 11
M  ZZM  27 5
M  ZZI  27 1
M  ZZM  28 5
M  ZZI  28 1
M  ZZM  29 5
M  ZZI  29 1
M  ZZM  30 5
M  ZZI  30 1
M  ZZM  31 5
M  ZZI  31 1
M  ZZM  32 5
M  ZZI  32 1
M  ZZM  33 5
M  ZZI  33 1
M  ZZM  34 5
M  ZZI  34 1
M  ZZM  35 5
M  ZZI  35 1
M  ZZM  36 5
M  ZZI  36 1
M  ZZM  37 5
M  ZZI  37 1
M  ZZM  38 5
M  ZZI  38 1
M  ZZM  39 5
M  ZZI  39 1
M  ZZM  40 21
M  ZZI  40 20
M  ZZM  41 5
M  ZZI  41 1
M  ZZM  42 36
M  ZZI  42 17
M  ZZM  43 36
M  ZZI  43 17
M  ZZM  44 36
M  ZZI  44 17
M  ZZM  45 5
M  ZZI  45 1
M  ZZM  46 5
M  ZZI  46 1
M  ZZM  47 5
M  ZZI  47 1
M  ZZM  48 5
M  ZZI  48 1
M  ZZM  49 5
M  ZZI  49 1
M  ZZM  50 5
M  ZZI  50 1
M  ZZM  51 5
M  ZZI  51 1
M  CHG  1  16   1
M  END
> <IX>
1

> <NAME>
cIAP1_6PSJ_5.pdb

> <Score>
-13.35762

> <Natom>
51

> <Nflex>
9

> <Hbond>
-3.441942

> <Hphob>
-4.631431

> <VwInt>
-20.777544

> <Dsolv>
9.098494

> <SolEl>
6.180255

> <Eintl>
4.880431

> <RecConf>
ND

> <projPath>
cIAP1_maps/

> <NAME_>
cIAP1_6PSJ_5.pdb

$$$$
