cIAP1_6XJK_3.pdb
  MOLSOFT 04032206483D

 82 85  0  0  1  0  0  0  0  0999 V2000
   25.5378   21.1146    4.6483 C   0  0  0  0  0  0  0  0  0  0  0  0
   25.1466   20.5972    6.0048 C   0  0  0  0  0  0  0  0  0  0  0  0
   24.5163   19.5608    6.1547 O   0  0  0  0  0  0  0  0  0  0  0  0
   25.5820   21.4099    7.0308 N   0  0  0  0  0  0  0  0  0  0  0  0
   25.2861   21.1311    8.4293 C   0  0  2  0  0  0  0  0  0  0  0  0
   24.7373   22.3402    9.1619 C   0  0  0  0  0  0  0  0  0  0  0  0
   25.0646   22.1173   10.5472 N   0  0  0  0  0  0  0  0  0  0  0  0
   24.2310   22.6231   11.5510 C   0  0  0  0  0  0  0  0  0  0  0  0
   23.2814   23.3533   11.2985 O   0  0  0  0  0  0  0  0  0  0  0  0
   24.5009   22.1704   12.9898 C   0  0  1  0  0  0  0  0  0  0  0  0
   24.3465   23.3083   13.8992 N   0  0  0  0  0  0  0  0  0  0  0  0
   25.1191   23.4388   15.0407 C   0  0  0  0  0  0  0  0  0  0  0  0
   26.1063   22.7574   15.2782 O   0  0  0  0  0  0  0  0  0  0  0  0
   24.6080   24.4866   16.0310 C   0  0  1  0  0  0  0  0  0  0  0  0
   24.6123   23.9884   17.4652 N   0  3  0  0  0  0  0  0  0  0  0  0
   23.8959   22.6989   17.7119 C   0  0  0  0  0  0  0  0  0  0  0  0
   25.4825   25.7302   15.9779 C   0  0  0  0  0  0  0  0  0  0  0  0
   23.5244   21.0195   13.3372 C   0  0  0  0  0  0  0  0  0  0  0  0
   24.1023   20.0885   14.4073 C   0  0  0  0  0  0  0  0  0  0  0  0
   23.1515   18.9436   14.7337 C   0  0  0  0  0  0  0  0  0  0  0  0
   21.7816   19.4541   15.1584 C   0  0  0  0  0  0  0  0  0  0  0  0
   21.1847   20.3755   14.1071 C   0  0  0  0  0  0  0  0  0  0  0  0
   22.1290   21.5196   13.7651 C   0  0  0  0  0  0  0  0  0  0  0  0
   26.1904   21.1859   10.6704 C   0  0  2  0  0  0  0  0  0  0  0  0
   27.4379   21.8446   11.2614 C   0  0  0  0  0  0  0  0  0  0  0  0
   28.2588   21.1972   11.8945 O   0  0  0  0  0  0  0  0  0  0  0  0
   27.6261   23.1608   10.8830 N   0  0  0  0  0  0  0  0  0  0  0  0
   28.7623   23.9489   11.3300 C   0  0  1  0  0  0  0  0  0  0  0  0
   29.1101   25.0020   10.3035 C   0  0  0  0  0  0  0  0  0  0  0  0
   28.7085   26.3336   10.4551 C   0  0  0  0  0  0  0  0  0  0  0  0
   29.0671   27.2697    9.4927 C   0  0  0  0  0  0  0  0  0  0  0  0
   29.8011   26.9043    8.3819 C   0  0  0  0  0  0  0  0  0  0  0  0
   30.1813   25.5882    8.2177 C   0  0  0  0  0  0  0  0  0  0  0  0
   29.8361   24.6454    9.1689 C   0  0  0  0  0  0  0  0  0  0  0  0
   27.9486   26.8038   11.6643 C   0  0  0  0  0  0  0  0  0  0  0  0
   27.4153   25.6761   12.5333 C   0  0  0  0  0  0  0  0  0  0  0  0
   28.4547   24.5796   12.6870 C   0  0  0  0  0  0  0  0  0  0  0  0
   26.5160   20.7610    9.2356 C   0  0  0  0  0  0  0  0  0  0  0  0
   25.1614   22.1337    4.5161 H   0  0  0  0  0  0  0  0  0  0  0  0
   25.1053   20.4773    3.8711 H   0  0  0  0  0  0  0  0  0  0  0  0
   26.6275   21.1119    4.5503 H   0  0  0  0  0  0  0  0  0  0  0  0
   26.1429   22.2252    6.8043 H   0  0  0  0  0  0  0  0  0  0  0  0
   24.5688   20.3077    8.4913 H   0  0  0  0  0  0  0  0  0  0  0  0
   25.2161   23.2733    8.8437 H   0  0  0  0  0  0  0  0  0  0  0  0
   23.6584   22.4385    9.0400 H   0  0  0  0  0  0  0  0  0  0  0  0
   25.5309   21.8191   13.0742 H   0  0  0  0  0  0  0  0  0  0  0  0
   23.5882   23.9591   13.7090 H   0  0  0  0  0  0  0  0  0  0  0  0
   23.5701   24.7518   15.8009 H   0  0  0  0  0  0  0  0  0  0  0  0
   25.5795   23.9004   17.8074 H   0  0  0  0  0  0  0  0  0  0  0  0
   24.1583   24.7036   18.0507 H   0  0  0  0  0  0  0  0  0  0  0  0
   23.8094   22.5744   18.7951 H   0  0  0  0  0  0  0  0  0  0  0  0
   24.4879   21.8841   17.2897 H   0  0  0  0  0  0  0  0  0  0  0  0
   22.9052   22.7543   17.2507 H   0  0  0  0  0  0  0  0  0  0  0  0
   25.2346   26.4177   16.7907 H   0  0  0  0  0  0  0  0  0  0  0  0
   25.3417   26.2564   15.0312 H   0  0  0  0  0  0  0  0  0  0  0  0
   26.5453   25.4821   16.0611 H   0  0  0  0  0  0  0  0  0  0  0  0
   23.4004   20.4072   12.4369 H   0  0  0  0  0  0  0  0  0  0  0  0
   25.0581   19.6749   14.0687 H   0  0  0  0  0  0  0  0  0  0  0  0
   24.3112   20.6464   15.3236 H   0  0  0  0  0  0  0  0  0  0  0  0
   23.0446   18.2953   13.8569 H   0  0  0  0  0  0  0  0  0  0  0  0
   23.5775   18.3267   15.5312 H   0  0  0  0  0  0  0  0  0  0  0  0
   21.1086   18.6088   15.3328 H   0  0  0  0  0  0  0  0  0  0  0  0
   21.8682   19.9915   16.1092 H   0  0  0  0  0  0  0  0  0  0  0  0
   20.9622   19.7969   13.2055 H   0  0  0  0  0  0  0  0  0  0  0  0
   20.2322   20.7775   14.4664 H   0  0  0  0  0  0  0  0  0  0  0  0
   22.2066   22.1641   14.6468 H   0  0  0  0  0  0  0  0  0  0  0  0
   21.6762   22.1317   12.9791 H   0  0  0  0  0  0  0  0  0  0  0  0
   25.8860   20.3405   11.2975 H   0  0  0  0  0  0  0  0  0  0  0  0
   26.8976   23.6321   10.3574 H   0  0  0  0  0  0  0  0  0  0  0  0
   29.6177   23.2759   11.4609 H   0  0  0  0  0  0  0  0  0  0  0  0
   28.7801   28.3090    9.6148 H   0  0  0  0  0  0  0  0  0  0  0  0
   30.0811   27.6503    7.6450 H   0  0  0  0  0  0  0  0  0  0  0  0
   30.7573   25.2956    7.3455 H   0  0  0  0  0  0  0  0  0  0  0  0
   30.1501   23.6158    9.0239 H   0  0  0  0  0  0  0  0  0  0  0  0
   28.6218   27.4096   12.2733 H   0  0  0  0  0  0  0  0  0  0  0  0
   27.1222   27.4489   11.3493 H   0  0  0  0  0  0  0  0  0  0  0  0
   27.1478   26.0679   13.5170 H   0  0  0  0  0  0  0  0  0  0  0  0
   26.4963   25.2697   12.0978 H   0  0  0  0  0  0  0  0  0  0  0  0
   28.0900   23.8248   13.3915 H   0  0  0  0  0  0  0  0  0  0  0  0
   29.3671   25.0033   13.1232 H   0  0  0  0  0  0  0  0  0  0  0  0
   26.7330   19.6895    9.1699 H   0  0  0  0  0  0  0  0  0  0  0  0
   27.4020   21.2772    8.8470 H   0  0  0  0  0  0  0  0  0  0  0  0
  1 39  1  0  0  0  0
  1 40  1  0  0  0  0
  1 41  1  0  0  0  0
  1  2  1  0  0  0  0
  2  3  2  0  0  0  0
  2  4  1  0  0  0  0
  4 42  1  0  0  0  0
  5  4  1  0  0  0  0
  5 43  1  0  0  0  0
  5 38  1  0  0  0  0
  5  6  1  0  0  0  0
  6  7  1  0  0  0  0
  6 44  1  0  0  0  0
  6 45  1  0  0  0  0
 24  7  1  0  0  0  0
  7  8  1  0  0  0  0
  8  9  2  0  0  0  0
 10  8  1  0  0  0  0
 10 46  1  0  0  0  0
 10 11  1  0  0  0  0
 10 18  1  0  0  0  0
 11 47  1  0  0  0  0
 11 12  1  0  0  0  0
 12 13  2  0  0  0  0
 14 12  1  0  0  0  0
 14 48  1  0  0  0  0
 14 17  1  0  0  0  0
 14 15  1  0  0  0  0
 15 49  1  0  0  0  0
 15 50  1  0  0  0  0
 15 16  1  0  0  0  0
 16 51  1  0  0  0  0
 16 52  1  0  0  0  0
 16 53  1  0  0  0  0
 17 54  1  0  0  0  0
 17 55  1  0  0  0  0
 17 56  1  0  0  0  0
 18 57  1  0  0  0  0
 18 19  1  0  0  0  0
 18 23  1  0  0  0  0
 19 58  1  0  0  0  0
 19 59  1  0  0  0  0
 19 20  1  0  0  0  0
 20 60  1  0  0  0  0
 20 61  1  0  0  0  0
 20 21  1  0  0  0  0
 21 62  1  0  0  0  0
 21 63  1  0  0  0  0
 21 22  1  0  0  0  0
 22 64  1  0  0  0  0
 22 65  1  0  0  0  0
 22 23  1  0  0  0  0
 23 66  1  0  0  0  0
 23 67  1  0  0  0  0
 24 38  1  0  0  0  0
 24 68  1  0  0  0  0
 24 25  1  0  0  0  0
 25 26  2  0  0  0  0
 25 27  1  0  0  0  0
 27 69  1  0  0  0  0
 28 27  1  0  0  0  0
 28 70  1  0  0  0  0
 28 29  1  0  0  0  0
 28 37  1  0  0  0  0
 29 30  2  0  0  0  0
 29 34  1  0  0  0  0
 30 35  1  0  0  0  0
 30 31  1  0  0  0  0
 31 71  1  0  0  0  0
 31 32  2  0  0  0  0
 32 72  1  0  0  0  0
 32 33  1  0  0  0  0
 33 73  1  0  0  0  0
 33 34  2  0  0  0  0
 34 74  1  0  0  0  0
 35 75  1  0  0  0  0
 35 76  1  0  0  0  0
 35 36  1  0  0  0  0
 36 77  1  0  0  0  0
 36 78  1  0  0  0  0
 36 37  1  0  0  0  0
 37 79  1  0  0  0  0
 37 80  1  0  0  0  0
 38 81  1  0  0  0  0
 38 82  1  0  0  0  0
M  ZZC   1 c1
M  ZZC   2 c2
M  ZZC   3 o1
M  ZZC   4 n1
M  ZZC   5 c3
M  ZZC   6 c4
M  ZZC   7 n2
M  ZZC   8 c5
M  ZZC   9 o2
M  ZZC  10 c6
M  ZZC  11 n3
M  ZZC  12 c7
M  ZZC  13 o3
M  ZZC  14 c8
M  ZZC  15 n4
M  ZZC  16 c9
M  ZZC  17 c10
M  ZZC  18 c11
M  ZZC  19 c12
M  ZZC  20 c13
M  ZZC  21 c14
M  ZZC  22 c15
M  ZZC  23 c16
M  ZZC  24 c17
M  ZZC  25 c18
M  ZZC  26 o4
M  ZZC  27 n5
M  ZZC  28 c19
M  ZZC  29 c20
M  ZZC  30 c21
M  ZZC  31 c22
M  ZZC  32 c23
M  ZZC  33 c24
M  ZZC  34 c25
M  ZZC  35 c26
M  ZZC  36 c27
M  ZZC  37 c28
M  ZZC  38 c29
M  ZZC  39 h11
M  ZZC  40 h12
M  ZZC  41 h13
M  ZZC  42 h01
M  ZZC  43 h31
M  ZZC  44 h41
M  ZZC  45 h42
M  ZZC  46 h61
M  ZZC  47 h02
M  ZZC  48 h81
M  ZZC  49 h03
M  ZZC  50 h04
M  ZZC  51 h91
M  ZZC  52 h92
M  ZZC  53 h93
M  ZZC  54 h101
M  ZZC  55 h102
M  ZZC  56 h103
M  ZZC  57 h111
M  ZZC  58 h121
M  ZZC  59 h122
M  ZZC  60 h131
M  ZZC  61 h132
M  ZZC  62 h141
M  ZZC  63 h142
M  ZZC  64 h151
M  ZZC  65 h152
M  ZZC  66 h161
M  ZZC  67 h162
M  ZZC  68 h171
M  ZZC  69 h51
M  ZZC  70 h191
M  ZZC  71 h221
M  ZZC  72 h231
M  ZZC  73 h241
M  ZZC  74 h251
M  ZZC  75 h261
M  ZZC  76 h262
M  ZZC  77 h271
M  ZZC  78 h272
M  ZZC  79 h281
M  ZZC  80 h282
M  ZZC  81 h291
M  ZZC  82 h292
M  ZZM   1 1
M  ZZI   1 111
M  ZZM   2 3
M  ZZI   2 121
M  ZZM   3 7
M  ZZI   3 81
M  ZZM   4 10
M  ZZI   4 211
M  ZZM   5 1
M  ZZI   5 113
M  ZZM   6 1
M  ZZI   6 112
M  ZZM   7 10
M  ZZI   7 192
M  ZZM   8 3
M  ZZI   8 121
M  ZZM   9 7
M  ZZI   9 81
M  ZZM  10 1
M  ZZI  10 113
M  ZZM  11 10
M  ZZI  11 211
M  ZZM  12 3
M  ZZI  12 121
M  ZZM  13 7
M  ZZI  13 81
M  ZZM  14 1
M  ZZI  14 113
M  ZZM  15 34
M  ZZI  15 231
M  ZZM  16 1
M  ZZI  16 111
M  ZZM  17 1
M  ZZI  17 111
M  ZZM  18 1
M  ZZI  18 113
M  ZZM  19 1
M  ZZI  19 112
M  ZZM  20 1
M  ZZI  20 112
M  ZZM  21 1
M  ZZI  21 112
M  ZZM  22 1
M  ZZI  22 112
M  ZZM  23 1
M  ZZI  23 112
M  ZZM  24 1
M  ZZI  24 113
M  ZZM  25 3
M  ZZI  25 121
M  ZZM  26 7
M  ZZI  26 81
M  ZZM  27 10
M  ZZI  27 211
M  ZZM  28 1
M  ZZI  28 113
M  ZZM  29 37
M  ZZI  29 124
M  ZZM  30 37
M  ZZI  30 124
M  ZZM  31 37
M  ZZI  31 125
M  ZZM  32 37
M  ZZI  32 125
M  ZZM  33 37
M  ZZI  33 125
M  ZZM  34 37
M  ZZI  34 125
M  ZZM  35 1
M  ZZI  35 112
M  ZZM  36 1
M  ZZI  36 112
M  ZZM  37 1
M  ZZI  37 112
M  ZZM  38 1
M  ZZI  38 112
M  ZZM  39 5
M  ZZI  39 1
M  ZZM  40 5
M  ZZI  40 1
M  ZZM  41 5
M  ZZI  41 1
M  ZZM  42 28
M  ZZI  42 11
M  ZZM  43 5
M  ZZI  43 1
M  ZZM  44 5
M  ZZI  44 1
M  ZZM  45 5
M  ZZI  45 1
M  ZZM  46 5
M  ZZI  46 1
M  ZZM  47 28
M  ZZI  47 11
M  ZZM  48 5
M  ZZI  48 1
M  ZZM  49 36
M  ZZI  49 17
M  ZZM  50 36
M  ZZI  50 17
M  ZZM  51 5
M  ZZI  51 1
M  ZZM  52 5
M  ZZI  52 1
M  ZZM  53 5
M  ZZI  53 1
M  ZZM  54 5
M  ZZI  54 1
M  ZZM  55 5
M  ZZI  55 1
M  ZZM  56 5
M  ZZI  56 1
M  ZZM  57 5
M  ZZI  57 1
M  ZZM  58 5
M  ZZI  58 1
M  ZZM  59 5
M  ZZI  59 1
M  ZZM  60 5
M  ZZI  60 1
M  ZZM  61 5
M  ZZI  61 1
M  ZZM  62 5
M  ZZI  62 1
M  ZZM  63 5
M  ZZI  63 1
M  ZZM  64 5
M  ZZI  64 1
M  ZZM  65 5
M  ZZI  65 1
M  ZZM  66 5
M  ZZI  66 1
M  ZZM  67 5
M  ZZI  67 1
M  ZZM  68 5
M  ZZI  68 1
M  ZZM  69 28
M  ZZI  69 11
M  ZZM  70 5
M  ZZI  70 1
M  ZZM  71 5
M  ZZI  71 1
M  ZZM  72 5
M  ZZI  72 1
M  ZZM  73 5
M  ZZI  73 1
M  ZZM  74 5
M  ZZI  74 1
M  ZZM  75 5
M  ZZI  75 1
M  ZZM  76 5
M  ZZI  76 1
M  ZZM  77 5
M  ZZI  77 1
M  ZZM  78 5
M  ZZI  78 1
M  ZZM  79 5
M  ZZI  79 1
M  ZZM  80 5
M  ZZI  80 1
M  ZZM  81 5
M  ZZI  81 1
M  ZZM  82 5
M  ZZI  82 1
M  CHG  1  15   1
M  END
> <IX>
1

> <NAME>
cIAP1_6XJK_3.pdb

> <Score>
-11.849543

> <Natom>
82

> <Nflex>
9

> <Hbond>
-4.489956

> <Hphob>
-6.197691

> <VwInt>
-19.389891

> <Dsolv>
11.375625

> <SolEl>
5.85512

> <Eintl>
8.760484

> <RecConf>
ND

> <projPath>
cIAP1_maps/

> <NAME_>
cIAP1_6XJK_3.pdb

$$$$
