IAPBIR2_4QNQ_69.pdb
  MOLSOFT 04032206373D

 71 74  0  0  1  0  0  0  0  0999 V2000
    7.5444   43.0284   25.5500 O   0  0  0  0  0  0  0  0  0  0  0  0
    8.5577   43.6089   24.8043 C   0  0  0  0  0  0  0  0  0  0  0  0
    8.4342   43.7621   23.4331 C   0  0  0  0  0  0  0  0  0  0  0  0
    9.4786   44.3090   22.6889 C   0  0  0  0  0  0  0  0  0  0  0  0
   10.6690   44.6510   23.3420 C   0  0  0  0  0  0  0  0  0  0  0  0
   11.8663   45.1515   22.5808 C   0  0  2  0  0  0  0  0  0  0  0  0
   11.9106   46.6022   22.5518 N   0  0  0  0  0  0  0  0  0  0  0  0
   13.0617   47.3368   22.7659 C   0  0  0  0  0  0  0  0  0  0  0  0
   14.0624   46.8915   23.3127 O   0  0  0  0  0  0  0  0  0  0  0  0
   12.9250   48.7797   22.2703 C   0  0  1  0  0  0  0  0  0  0  0  0
   12.3475   49.7697   23.3036 C   0  0  0  0  0  0  0  0  0  0  0  0
   11.4933   49.1421   24.4118 C   0  0  0  0  0  0  0  0  0  0  0  0
   11.5039   50.8408   22.5914 C   0  0  0  0  0  0  0  0  0  0  0  0
   13.6134   50.3878   23.8903 C   0  0  0  0  0  0  0  0  0  0  0  0
   14.5762   50.4728   22.7183 C   0  0  1  0  0  0  0  0  0  0  0  0
   15.9018   50.3397   23.2361 O   0  0  0  0  0  0  0  0  0  0  0  0
   16.9165   50.8250   22.3582 C   0  0  0  0  0  0  0  0  0  0  0  0
   17.1267   49.8850   21.1902 C   0  0  0  0  0  0  0  0  0  0  0  0
   15.9673   49.8813   20.1974 C   0  0  1  0  0  0  0  0  0  0  0  0
   16.4214   49.3958   18.8905 N   0  0  0  0  0  0  0  0  0  0  0  0
   15.8650   49.8567   17.7080 C   0  0  0  0  0  0  0  0  0  0  0  0
   15.0060   50.7253   17.6514 O   0  0  0  0  0  0  0  0  0  0  0  0
   16.3922   49.1868   16.4368 C   0  0  2  0  0  0  0  0  0  0  0  0
   16.5485   50.1979   15.3151 N   0  3  0  0  0  0  0  0  0  0  0  0
   17.2429   49.7004   14.0915 C   0  0  0  0  0  0  0  0  0  0  0  0
   15.4012   48.1060   16.0035 C   0  0  0  0  0  0  0  0  0  0  0  0
   14.8077   48.9961   20.6699 C   0  0  0  0  0  0  0  0  0  0  0  0
   14.3998   48.0567   19.9980 O   0  0  0  0  0  0  0  0  0  0  0  0
   14.2128   49.3498   21.8776 N   0  0  0  0  0  0  0  0  0  0  0  0
   11.8156   44.6362   21.1495 C   0  0  0  0  0  0  0  0  0  0  0  0
   10.5168   45.0395   20.4670 C   0  0  0  0  0  0  0  0  0  0  0  0
    9.3015   44.4869   21.1993 C   0  0  0  0  0  0  0  0  0  0  0  0
   10.7568   44.5155   24.7220 C   0  0  0  0  0  0  0  0  0  0  0  0
    9.7002   44.0181   25.4586 C   0  0  0  0  0  0  0  0  0  0  0  0
    6.8802   42.6812   24.9245 H   0  0  0  0  0  0  0  0  0  0  0  0
    7.5213   43.4496   22.9358 H   0  0  0  0  0  0  0  0  0  0  0  0
   12.7808   44.7671   23.0452 H   0  0  0  0  0  0  0  0  0  0  0  0
   11.0685   47.0829   22.2577 H   0  0  0  0  0  0  0  0  0  0  0  0
   12.2953   48.7452   21.3722 H   0  0  0  0  0  0  0  0  0  0  0  0
   10.5948   48.6651   24.0088 H   0  0  0  0  0  0  0  0  0  0  0  0
   11.1672   49.8987   25.1324 H   0  0  0  0  0  0  0  0  0  0  0  0
   12.0497   48.3899   24.9742 H   0  0  0  0  0  0  0  0  0  0  0  0
   11.1804   51.6204   23.2886 H   0  0  0  0  0  0  0  0  0  0  0  0
   10.6039   50.4016   22.1491 H   0  0  0  0  0  0  0  0  0  0  0  0
   12.0521   51.3346   21.7831 H   0  0  0  0  0  0  0  0  0  0  0  0
   13.4499   51.3686   24.3496 H   0  0  0  0  0  0  0  0  0  0  0  0
   14.0315   49.7469   24.6771 H   0  0  0  0  0  0  0  0  0  0  0  0
   14.4547   51.4106   22.1629 H   0  0  0  0  0  0  0  0  0  0  0  0
   16.6898   51.8463   22.0333 H   0  0  0  0  0  0  0  0  0  0  0  0
   17.8409   50.8707   22.9415 H   0  0  0  0  0  0  0  0  0  0  0  0
   18.0365   50.2121   20.6810 H   0  0  0  0  0  0  0  0  0  0  0  0
   17.2899   48.8692   21.5693 H   0  0  0  0  0  0  0  0  0  0  0  0
   15.5832   50.8975   20.0569 H   0  0  0  0  0  0  0  0  0  0  0  0
   17.1017   48.6423   18.8820 H   0  0  0  0  0  0  0  0  0  0  0  0
   17.3845   48.7629   16.6288 H   0  0  0  0  0  0  0  0  0  0  0  0
   15.6229   50.5708   15.0615 H   0  0  0  0  0  0  0  0  0  0  0  0
   17.0701   51.0124   15.6655 H   0  0  0  0  0  0  0  0  0  0  0  0
   17.3281   50.5385   13.3951 H   0  0  0  0  0  0  0  0  0  0  0  0
   16.6505   48.8956   13.6469 H   0  0  0  0  0  0  0  0  0  0  0  0
   18.2307   49.3560   14.3949 H   0  0  0  0  0  0  0  0  0  0  0  0
   15.8510   47.4221   15.2772 H   0  0  0  0  0  0  0  0  0  0  0  0
   14.5057   48.5388   15.5476 H   0  0  0  0  0  0  0  0  0  0  0  0
   15.0602   47.5170   16.8587 H   0  0  0  0  0  0  0  0  0  0  0  0
   12.6645   45.0397   20.5944 H   0  0  0  0  0  0  0  0  0  0  0  0
   11.9000   43.5467   21.1380 H   0  0  0  0  0  0  0  0  0  0  0  0
   10.4466   46.1296   20.4043 H   0  0  0  0  0  0  0  0  0  0  0  0
   10.5046   44.6894   19.4309 H   0  0  0  0  0  0  0  0  0  0  0  0
    9.0498   43.5240   20.7552 H   0  0  0  0  0  0  0  0  0  0  0  0
    8.4455   45.1431   21.0114 H   0  0  0  0  0  0  0  0  0  0  0  0
   11.6766   44.7797   25.2317 H   0  0  0  0  0  0  0  0  0  0  0  0
    9.7876   43.9159   26.5347 H   0  0  0  0  0  0  0  0  0  0  0  0
  1 35  1  0  0  0  0
  1  2  1  0  0  0  0
  2  3  1  0  0  0  0
  2 34  2  0  0  0  0
  3 36  1  0  0  0  0
  3  4  2  0  0  0  0
  4 32  1  0  0  0  0
  4  5  1  0  0  0  0
  6  5  1  0  0  0  0
  5 33  2  0  0  0  0
  6 30  1  0  0  0  0
  6 37  1  0  0  0  0
  6  7  1  0  0  0  0
  7 38  1  0  0  0  0
  7  8  1  0  0  0  0
  8  9  2  0  0  0  0
 10  8  1  0  0  0  0
 10 39  1  0  0  0  0
 10 11  1  0  0  0  0
 10 29  1  0  0  0  0
 11 13  1  0  0  0  0
 11 12  1  0  0  0  0
 11 14  1  0  0  0  0
 12 40  1  0  0  0  0
 12 41  1  0  0  0  0
 12 42  1  0  0  0  0
 13 43  1  0  0  0  0
 13 44  1  0  0  0  0
 13 45  1  0  0  0  0
 14 46  1  0  0  0  0
 14 47  1  0  0  0  0
 15 14  1  0  0  0  0
 15 48  1  0  0  0  0
 15 29  1  0  0  0  0
 15 16  1  0  0  0  0
 16 17  1  0  0  0  0
 17 18  1  0  0  0  0
 17 49  1  0  0  0  0
 17 50  1  0  0  0  0
 19 18  1  0  0  0  0
 18 51  1  0  0  0  0
 18 52  1  0  0  0  0
 19 27  1  0  0  0  0
 19 53  1  0  0  0  0
 19 20  1  0  0  0  0
 20 54  1  0  0  0  0
 20 21  1  0  0  0  0
 21 22  2  0  0  0  0
 23 21  1  0  0  0  0
 23 55  1  0  0  0  0
 23 26  1  0  0  0  0
 23 24  1  0  0  0  0
 24 56  1  0  0  0  0
 24 57  1  0  0  0  0
 24 25  1  0  0  0  0
 25 58  1  0  0  0  0
 25 59  1  0  0  0  0
 25 60  1  0  0  0  0
 26 61  1  0  0  0  0
 26 62  1  0  0  0  0
 26 63  1  0  0  0  0
 27 29  1  0  0  0  0
 27 28  2  0  0  0  0
 30 31  1  0  0  0  0
 30 64  1  0  0  0  0
 30 65  1  0  0  0  0
 31 32  1  0  0  0  0
 31 66  1  0  0  0  0
 31 67  1  0  0  0  0
 32 68  1  0  0  0  0
 32 69  1  0  0  0  0
 33 70  1  0  0  0  0
 33 34  1  0  0  0  0
 34 71  1  0  0  0  0
M  ZZC   1 o1
M  ZZC   2 c1
M  ZZC   3 c2
M  ZZC   4 c3
M  ZZC   5 c4
M  ZZC   6 c5
M  ZZC   7 n1
M  ZZC   8 c6
M  ZZC   9 o2
M  ZZC  10 c7
M  ZZC  11 c8
M  ZZC  12 c9
M  ZZC  13 c10
M  ZZC  14 c11
M  ZZC  15 c12
M  ZZC  16 o3
M  ZZC  17 c13
M  ZZC  18 c14
M  ZZC  19 c15
M  ZZC  20 n2
M  ZZC  21 c16
M  ZZC  22 o4
M  ZZC  23 c17
M  ZZC  24 n3
M  ZZC  25 c18
M  ZZC  26 c19
M  ZZC  27 c20
M  ZZC  28 o5
M  ZZC  29 n4
M  ZZC  30 c21
M  ZZC  31 c22
M  ZZC  32 c23
M  ZZC  33 c24
M  ZZC  34 c25
M  ZZC  35 h11
M  ZZC  36 h21
M  ZZC  37 h51
M  ZZC  38 h01
M  ZZC  39 h71
M  ZZC  40 h91
M  ZZC  41 h92
M  ZZC  42 h93
M  ZZC  43 h101
M  ZZC  44 h102
M  ZZC  45 h103
M  ZZC  46 h111
M  ZZC  47 h112
M  ZZC  48 h121
M  ZZC  49 h131
M  ZZC  50 h132
M  ZZC  51 h141
M  ZZC  52 h142
M  ZZC  53 h151
M  ZZC  54 h02
M  ZZC  55 h171
M  ZZC  56 h31
M  ZZC  57 h32
M  ZZC  58 h181
M  ZZC  59 h182
M  ZZC  60 h183
M  ZZC  61 h191
M  ZZC  62 h192
M  ZZC  63 h193
M  ZZC  64 h211
M  ZZC  65 h212
M  ZZC  66 h221
M  ZZC  67 h222
M  ZZC  68 h231
M  ZZC  69 h232
M  ZZC  70 h241
M  ZZC  71 h251
M  ZZM   1 6
M  ZZI   1 62
M  ZZM   2 37
M  ZZI   2 124
M  ZZM   3 37
M  ZZI   3 125
M  ZZM   4 37
M  ZZI   4 124
M  ZZM   5 37
M  ZZI   5 124
M  ZZM   6 1
M  ZZI   6 113
M  ZZM   7 10
M  ZZI   7 211
M  ZZM   8 3
M  ZZI   8 121
M  ZZM   9 7
M  ZZI   9 81
M  ZZM  10 1
M  ZZI  10 113
M  ZZM  11 1
M  ZZI  11 110
M  ZZM  12 1
M  ZZI  12 111
M  ZZM  13 1
M  ZZI  13 111
M  ZZM  14 1
M  ZZI  14 112
M  ZZM  15 1
M  ZZI  15 113
M  ZZM  16 6
M  ZZI  16 65
M  ZZM  17 1
M  ZZI  17 112
M  ZZM  18 1
M  ZZI  18 112
M  ZZM  19 1
M  ZZI  19 113
M  ZZM  20 10
M  ZZI  20 211
M  ZZM  21 3
M  ZZI  21 121
M  ZZM  22 7
M  ZZI  22 81
M  ZZM  23 1
M  ZZI  23 113
M  ZZM  24 34
M  ZZI  24 231
M  ZZM  25 1
M  ZZI  25 111
M  ZZM  26 1
M  ZZI  26 111
M  ZZM  27 3
M  ZZI  27 121
M  ZZM  28 7
M  ZZI  28 81
M  ZZM  29 10
M  ZZI  29 192
M  ZZM  30 1
M  ZZI  30 112
M  ZZM  31 1
M  ZZI  31 112
M  ZZM  32 1
M  ZZI  32 112
M  ZZM  33 37
M  ZZI  33 125
M  ZZM  34 37
M  ZZI  34 125
M  ZZM  35 29
M  ZZI  35 27
M  ZZM  36 5
M  ZZI  36 1
M  ZZM  37 5
M  ZZI  37 1
M  ZZM  38 28
M  ZZI  38 11
M  ZZM  39 5
M  ZZI  39 1
M  ZZM  40 5
M  ZZI  40 1
M  ZZM  41 5
M  ZZI  41 1
M  ZZM  42 5
M  ZZI  42 1
M  ZZM  43 5
M  ZZI  43 1
M  ZZM  44 5
M  ZZI  44 1
M  ZZM  45 5
M  ZZI  45 1
M  ZZM  46 5
M  ZZI  46 1
M  ZZM  47 5
M  ZZI  47 1
M  ZZM  48 5
M  ZZI  48 1
M  ZZM  49 5
M  ZZI  49 1
M  ZZM  50 5
M  ZZI  50 1
M  ZZM  51 5
M  ZZI  51 1
M  ZZM  52 5
M  ZZI  52 1
M  ZZM  53 5
M  ZZI  53 1
M  ZZM  54 28
M  ZZI  54 11
M  ZZM  55 5
M  ZZI  55 1
M  ZZM  56 36
M  ZZI  56 17
M  ZZM  57 36
M  ZZI  57 17
M  ZZM  58 5
M  ZZI  58 1
M  ZZM  59 5
M  ZZI  59 1
M  ZZM  60 5
M  ZZI  60 1
M  ZZM  61 5
M  ZZI  61 1
M  ZZM  62 5
M  ZZI  62 1
M  ZZM  63 5
M  ZZI  63 1
M  ZZM  64 5
M  ZZI  64 1
M  ZZM  65 5
M  ZZI  65 1
M  ZZM  66 5
M  ZZI  66 1
M  ZZM  67 5
M  ZZI  67 1
M  ZZM  68 5
M  ZZI  68 1
M  ZZM  69 5
M  ZZI  69 1
M  ZZM  70 5
M  ZZI  70 1
M  ZZM  71 5
M  ZZI  71 1
M  CHG  1  24   1
M  END
> <IX>
1

> <NAME>
IAPBIR2_4QNQ_69.pdb

> <Score>
-15.72609

> <Natom>
71

> <Nflex>
5

> <Hbond>
-3.426296

> <Hphob>
-5.182514

> <VwInt>
-47.254724

> <Dsolv>
21.662294

> <SolEl>
29.699329

> <Eintl>
8.035282

> <RecConf>
ND

> <projPath>
IAPBIR2_maps/

> <NAME_>
IAPBIR2_4QNQ_69.pdb

$$$$
