IAPBIR2_4QNQ_68.pdb
  MOLSOFT 04032206373D

 71 74  0  0  1  0  0  0  0  0999 V2000
    7.5283   43.0314   25.6449 O   0  0  0  0  0  0  0  0  0  0  0  0
    8.4910   43.6060   24.8310 C   0  0  0  0  0  0  0  0  0  0  0  0
    8.2671   43.7455   23.4726 C   0  0  0  0  0  0  0  0  0  0  0  0
    9.2510   44.2894   22.6516 C   0  0  0  0  0  0  0  0  0  0  0  0
   10.4830   44.6472   23.2120 C   0  0  0  0  0  0  0  0  0  0  0  0
   11.6031   45.1550   22.3454 C   0  0  2  0  0  0  0  0  0  0  0  0
   11.5819   46.6069   22.2591 N   0  0  0  0  0  0  0  0  0  0  0  0
   12.6770   47.3241   21.8167 C   0  0  0  0  0  0  0  0  0  0  0  0
   13.7356   46.7873   21.5335 O   0  0  0  0  0  0  0  0  0  0  0  0
   12.4432   48.8353   21.6594 C   0  0  1  0  0  0  0  0  0  0  0  0
   12.2917   49.6463   22.9664 C   0  0  0  0  0  0  0  0  0  0  0  0
   11.5583   50.9673   22.6748 C   0  0  0  0  0  0  0  0  0  0  0  0
   11.5762   48.9503   24.1318 C   0  0  0  0  0  0  0  0  0  0  0  0
   13.7455   49.9188   23.3369 C   0  0  0  0  0  0  0  0  0  0  0  0
   14.4730   50.0780   22.0101 C   0  0  1  0  0  0  0  0  0  0  0  0
   15.7261   49.4077   22.1273 O   0  0  0  0  0  0  0  0  0  0  0  0
   16.7053   49.8275   21.1824 C   0  0  0  0  0  0  0  0  0  0  0  0
   16.3939   49.3080   19.7862 C   0  0  0  0  0  0  0  0  0  0  0  0
   15.1760   50.0083   19.1797 C   0  0  1  0  0  0  0  0  0  0  0  0
   15.3094   50.0962   17.7234 N   0  0  0  0  0  0  0  0  0  0  0  0
   15.4043   48.9888   16.8946 C   0  0  0  0  0  0  0  0  0  0  0  0
   15.1620   47.8444   17.2473 O   0  0  0  0  0  0  0  0  0  0  0  0
   15.8153   49.2947   15.4524 C   0  0  2  0  0  0  0  0  0  0  0  0
   15.9235   48.0273   14.6323 N   0  3  0  0  0  0  0  0  0  0  0  0
   15.6982   48.2063   13.1726 C   0  0  0  0  0  0  0  0  0  0  0  0
   17.1708   49.9868   15.3952 C   0  0  0  0  0  0  0  0  0  0  0  0
   13.8456   49.3980   19.6585 C   0  0  0  0  0  0  0  0  0  0  0  0
   13.0120   48.9480   18.8831 O   0  0  0  0  0  0  0  0  0  0  0  0
   13.6365   49.4086   21.0370 N   0  0  0  0  0  0  0  0  0  0  0  0
   11.4675   44.5404   20.9594 C   0  0  0  0  0  0  0  0  0  0  0  0
   10.1364   44.9213   20.3326 C   0  0  0  0  0  0  0  0  0  0  0  0
    8.9609   44.4510   21.1785 C   0  0  0  0  0  0  0  0  0  0  0  0
   10.6765   44.5259   24.5839 C   0  0  0  0  0  0  0  0  0  0  0  0
    9.6775   44.0252   25.3982 C   0  0  0  0  0  0  0  0  0  0  0  0
    6.8398   42.6645   25.0578 H   0  0  0  0  0  0  0  0  0  0  0  0
    7.3224   43.4248   23.0444 H   0  0  0  0  0  0  0  0  0  0  0  0
   12.5674   44.8450   22.7657 H   0  0  0  0  0  0  0  0  0  0  0  0
   10.7006   47.0780   22.4256 H   0  0  0  0  0  0  0  0  0  0  0  0
   11.5824   48.9610   20.9917 H   0  0  0  0  0  0  0  0  0  0  0  0
   11.5310   51.6111   23.5599 H   0  0  0  0  0  0  0  0  0  0  0  0
   10.5229   50.7823   22.3712 H   0  0  0  0  0  0  0  0  0  0  0  0
   12.0330   51.5415   21.8729 H   0  0  0  0  0  0  0  0  0  0  0  0
   10.5370   48.7145   23.8841 H   0  0  0  0  0  0  0  0  0  0  0  0
   11.5592   49.5926   25.0180 H   0  0  0  0  0  0  0  0  0  0  0  0
   12.0771   48.0255   24.4292 H   0  0  0  0  0  0  0  0  0  0  0  0
   13.8712   50.8033   23.9705 H   0  0  0  0  0  0  0  0  0  0  0  0
   14.1594   49.0783   23.9043 H   0  0  0  0  0  0  0  0  0  0  0  0
   14.6015   51.1339   21.7441 H   0  0  0  0  0  0  0  0  0  0  0  0
   16.8205   50.9163   21.2055 H   0  0  0  0  0  0  0  0  0  0  0  0
   17.6468   49.4070   21.5333 H   0  0  0  0  0  0  0  0  0  0  0  0
   17.2724   49.4757   19.1532 H   0  0  0  0  0  0  0  0  0  0  0  0
   16.2223   48.2271   19.8259 H   0  0  0  0  0  0  0  0  0  0  0  0
   15.1673   51.0568   19.4960 H   0  0  0  0  0  0  0  0  0  0  0  0
   15.5100   51.0199   17.3518 H   0  0  0  0  0  0  0  0  0  0  0  0
   15.0323   49.9127   15.0004 H   0  0  0  0  0  0  0  0  0  0  0  0
   16.8538   47.6014   14.7591 H   0  0  0  0  0  0  0  0  0  0  0  0
   15.2569   47.3345   14.9996 H   0  0  0  0  0  0  0  0  0  0  0  0
   15.7416   47.2158   12.7251 H   0  0  0  0  0  0  0  0  0  0  0  0
   16.4883   48.8431   12.7685 H   0  0  0  0  0  0  0  0  0  0  0  0
   14.7116   48.6519   13.0219 H   0  0  0  0  0  0  0  0  0  0  0  0
   17.1539   50.9533   15.9051 H   0  0  0  0  0  0  0  0  0  0  0  0
   17.4836   50.1710   14.3643 H   0  0  0  0  0  0  0  0  0  0  0  0
   17.9350   49.3650   15.8709 H   0  0  0  0  0  0  0  0  0  0  0  0
   12.2789   44.8879   20.3233 H   0  0  0  0  0  0  0  0  0  0  0  0
   11.5519   43.4516   21.0205 H   0  0  0  0  0  0  0  0  0  0  0  0
   10.0833   46.0070   20.2035 H   0  0  0  0  0  0  0  0  0  0  0  0
   10.0556   44.5040   19.3241 H   0  0  0  0  0  0  0  0  0  0  0  0
    8.6291   43.4924   20.7835 H   0  0  0  0  0  0  0  0  0  0  0  0
    8.1242   45.1446   21.0460 H   0  0  0  0  0  0  0  0  0  0  0  0
   11.6278   44.8069   25.0247 H   0  0  0  0  0  0  0  0  0  0  0  0
    9.8418   43.9324   26.4662 H   0  0  0  0  0  0  0  0  0  0  0  0
  1 35  1  0  0  0  0
  1  2  1  0  0  0  0
  2  3  1  0  0  0  0
  2 34  2  0  0  0  0
  3 36  1  0  0  0  0
  3  4  2  0  0  0  0
  4 32  1  0  0  0  0
  4  5  1  0  0  0  0
  6  5  1  0  0  0  0
  5 33  2  0  0  0  0
  6 30  1  0  0  0  0
  6 37  1  0  0  0  0
  6  7  1  0  0  0  0
  7 38  1  0  0  0  0
  7  8  1  0  0  0  0
  8  9  2  0  0  0  0
 10  8  1  0  0  0  0
 10 39  1  0  0  0  0
 10 11  1  0  0  0  0
 10 29  1  0  0  0  0
 11 13  1  0  0  0  0
 11 12  1  0  0  0  0
 11 14  1  0  0  0  0
 12 40  1  0  0  0  0
 12 41  1  0  0  0  0
 12 42  1  0  0  0  0
 13 43  1  0  0  0  0
 13 44  1  0  0  0  0
 13 45  1  0  0  0  0
 14 46  1  0  0  0  0
 14 47  1  0  0  0  0
 15 14  1  0  0  0  0
 15 48  1  0  0  0  0
 15 29  1  0  0  0  0
 15 16  1  0  0  0  0
 16 17  1  0  0  0  0
 17 18  1  0  0  0  0
 17 49  1  0  0  0  0
 17 50  1  0  0  0  0
 19 18  1  0  0  0  0
 18 51  1  0  0  0  0
 18 52  1  0  0  0  0
 19 27  1  0  0  0  0
 19 53  1  0  0  0  0
 19 20  1  0  0  0  0
 20 54  1  0  0  0  0
 20 21  1  0  0  0  0
 21 22  2  0  0  0  0
 23 21  1  0  0  0  0
 23 55  1  0  0  0  0
 23 26  1  0  0  0  0
 23 24  1  0  0  0  0
 24 56  1  0  0  0  0
 24 57  1  0  0  0  0
 24 25  1  0  0  0  0
 25 58  1  0  0  0  0
 25 59  1  0  0  0  0
 25 60  1  0  0  0  0
 26 61  1  0  0  0  0
 26 62  1  0  0  0  0
 26 63  1  0  0  0  0
 27 29  1  0  0  0  0
 27 28  2  0  0  0  0
 30 31  1  0  0  0  0
 30 64  1  0  0  0  0
 30 65  1  0  0  0  0
 31 32  1  0  0  0  0
 31 66  1  0  0  0  0
 31 67  1  0  0  0  0
 32 68  1  0  0  0  0
 32 69  1  0  0  0  0
 33 70  1  0  0  0  0
 33 34  1  0  0  0  0
 34 71  1  0  0  0  0
M  ZZC   1 o1
M  ZZC   2 c1
M  ZZC   3 c2
M  ZZC   4 c3
M  ZZC   5 c4
M  ZZC   6 c5
M  ZZC   7 n1
M  ZZC   8 c6
M  ZZC   9 o2
M  ZZC  10 c7
M  ZZC  11 c8
M  ZZC  12 c9
M  ZZC  13 c10
M  ZZC  14 c11
M  ZZC  15 c12
M  ZZC  16 o3
M  ZZC  17 c13
M  ZZC  18 c14
M  ZZC  19 c15
M  ZZC  20 n2
M  ZZC  21 c16
M  ZZC  22 o4
M  ZZC  23 c17
M  ZZC  24 n3
M  ZZC  25 c18
M  ZZC  26 c19
M  ZZC  27 c20
M  ZZC  28 o5
M  ZZC  29 n4
M  ZZC  30 c21
M  ZZC  31 c22
M  ZZC  32 c23
M  ZZC  33 c24
M  ZZC  34 c25
M  ZZC  35 h11
M  ZZC  36 h21
M  ZZC  37 h51
M  ZZC  38 h01
M  ZZC  39 h71
M  ZZC  40 h91
M  ZZC  41 h92
M  ZZC  42 h93
M  ZZC  43 h101
M  ZZC  44 h102
M  ZZC  45 h103
M  ZZC  46 h111
M  ZZC  47 h112
M  ZZC  48 h121
M  ZZC  49 h131
M  ZZC  50 h132
M  ZZC  51 h141
M  ZZC  52 h142
M  ZZC  53 h151
M  ZZC  54 h02
M  ZZC  55 h171
M  ZZC  56 h31
M  ZZC  57 h32
M  ZZC  58 h181
M  ZZC  59 h182
M  ZZC  60 h183
M  ZZC  61 h191
M  ZZC  62 h192
M  ZZC  63 h193
M  ZZC  64 h211
M  ZZC  65 h212
M  ZZC  66 h221
M  ZZC  67 h222
M  ZZC  68 h231
M  ZZC  69 h232
M  ZZC  70 h241
M  ZZC  71 h251
M  ZZM   1 6
M  ZZI   1 62
M  ZZM   2 37
M  ZZI   2 124
M  ZZM   3 37
M  ZZI   3 125
M  ZZM   4 37
M  ZZI   4 124
M  ZZM   5 37
M  ZZI   5 124
M  ZZM   6 1
M  ZZI   6 113
M  ZZM   7 10
M  ZZI   7 211
M  ZZM   8 3
M  ZZI   8 121
M  ZZM   9 7
M  ZZI   9 81
M  ZZM  10 1
M  ZZI  10 113
M  ZZM  11 1
M  ZZI  11 110
M  ZZM  12 1
M  ZZI  12 111
M  ZZM  13 1
M  ZZI  13 111
M  ZZM  14 1
M  ZZI  14 112
M  ZZM  15 1
M  ZZI  15 113
M  ZZM  16 6
M  ZZI  16 65
M  ZZM  17 1
M  ZZI  17 112
M  ZZM  18 1
M  ZZI  18 112
M  ZZM  19 1
M  ZZI  19 113
M  ZZM  20 10
M  ZZI  20 211
M  ZZM  21 3
M  ZZI  21 121
M  ZZM  22 7
M  ZZI  22 81
M  ZZM  23 1
M  ZZI  23 113
M  ZZM  24 34
M  ZZI  24 231
M  ZZM  25 1
M  ZZI  25 111
M  ZZM  26 1
M  ZZI  26 111
M  ZZM  27 3
M  ZZI  27 121
M  ZZM  28 7
M  ZZI  28 81
M  ZZM  29 10
M  ZZI  29 192
M  ZZM  30 1
M  ZZI  30 112
M  ZZM  31 1
M  ZZI  31 112
M  ZZM  32 1
M  ZZI  32 112
M  ZZM  33 37
M  ZZI  33 125
M  ZZM  34 37
M  ZZI  34 125
M  ZZM  35 29
M  ZZI  35 27
M  ZZM  36 5
M  ZZI  36 1
M  ZZM  37 5
M  ZZI  37 1
M  ZZM  38 28
M  ZZI  38 11
M  ZZM  39 5
M  ZZI  39 1
M  ZZM  40 5
M  ZZI  40 1
M  ZZM  41 5
M  ZZI  41 1
M  ZZM  42 5
M  ZZI  42 1
M  ZZM  43 5
M  ZZI  43 1
M  ZZM  44 5
M  ZZI  44 1
M  ZZM  45 5
M  ZZI  45 1
M  ZZM  46 5
M  ZZI  46 1
M  ZZM  47 5
M  ZZI  47 1
M  ZZM  48 5
M  ZZI  48 1
M  ZZM  49 5
M  ZZI  49 1
M  ZZM  50 5
M  ZZI  50 1
M  ZZM  51 5
M  ZZI  51 1
M  ZZM  52 5
M  ZZI  52 1
M  ZZM  53 5
M  ZZI  53 1
M  ZZM  54 28
M  ZZI  54 11
M  ZZM  55 5
M  ZZI  55 1
M  ZZM  56 36
M  ZZI  56 17
M  ZZM  57 36
M  ZZI  57 17
M  ZZM  58 5
M  ZZI  58 1
M  ZZM  59 5
M  ZZI  59 1
M  ZZM  60 5
M  ZZI  60 1
M  ZZM  61 5
M  ZZI  61 1
M  ZZM  62 5
M  ZZI  62 1
M  ZZM  63 5
M  ZZI  63 1
M  ZZM  64 5
M  ZZI  64 1
M  ZZM  65 5
M  ZZI  65 1
M  ZZM  66 5
M  ZZI  66 1
M  ZZM  67 5
M  ZZI  67 1
M  ZZM  68 5
M  ZZI  68 1
M  ZZM  69 5
M  ZZI  69 1
M  ZZM  70 5
M  ZZI  70 1
M  ZZM  71 5
M  ZZI  71 1
M  CHG  1  24   1
M  END
> <IX>
1

> <NAME>
IAPBIR2_4QNQ_68.pdb

> <Score>
-16.815536

> <Natom>
71

> <Nflex>
5

> <Hbond>
-4.21107

> <Hphob>
-5.264395

> <VwInt>
-48.482404

> <Dsolv>
22.384604

> <SolEl>
29.384767

> <Eintl>
11.109368

> <RecConf>
ND

> <projPath>
IAPBIR2_maps/

> <NAME_>
IAPBIR2_4QNQ_68.pdb

$$$$
