IAPBIR2_4QNQ_56.pdb
  MOLSOFT 04032206363D

 70 73  0  0  1  0  0  0  0  0999 V2000
   28.1971   28.0580    7.3621 O   0  0  0  0  0  0  0  0  0  0  0  0
   27.4380   27.2431    6.5466 C   0  0  0  0  0  0  0  0  0  0  0  0
   27.1473   25.9678    6.9952 C   0  0  0  0  0  0  0  0  0  0  0  0
   26.3581   25.1275    6.2089 C   0  0  0  0  0  0  0  0  0  0  0  0
   25.9664   23.7354    6.6037 C   0  0  0  0  0  0  0  0  0  0  0  0
   25.7018   22.9476    5.7025 O   0  0  0  0  0  0  0  0  0  0  0  0
   25.8535   23.3422    8.0039 C   0  0  0  0  0  0  0  0  0  0  0  0
   26.2701   24.1425    9.0450 N   0  0  0  0  0  0  0  0  0  0  0  0
   26.0530   23.5717   10.2121 C   0  0  0  0  0  0  0  0  0  0  0  0
   26.4830   24.2045   11.5061 C   0  0  1  0  0  0  0  0  0  0  0  0
   26.1633   23.4166   12.6917 N   0  0  0  0  0  0  0  0  0  0  0  0
   24.8965   23.4624   13.2778 C   0  0  0  0  0  0  0  0  0  0  0  0
   23.9737   24.0630   12.7496 O   0  0  0  0  0  0  0  0  0  0  0  0
   24.7038   22.7754   14.6348 C   0  0  2  0  0  0  0  0  0  0  0  0
   23.2766   22.5195   14.8350 N   0  0  0  0  0  0  0  0  0  0  0  0
   22.7117   21.2724   14.6483 C   0  0  0  0  0  0  0  0  0  0  0  0
   23.3310   20.3198   14.1959 O   0  0  0  0  0  0  0  0  0  0  0  0
   21.2337   21.1701   15.0392 C   0  0  1  0  0  0  0  0  0  0  0  0
   20.6719   19.8014   14.6977 N   0  3  0  0  0  0  0  0  0  0  0  0
   19.2550   19.5348   15.0869 C   0  0  0  0  0  0  0  0  0  0  0  0
   21.0551   21.4367   16.5353 C   0  0  0  0  0  0  0  0  0  0  0  0
   25.2906   23.5897   15.8112 C   0  0  0  0  0  0  0  0  0  0  0  0
   24.6385   24.9631   16.0173 C   0  0  0  0  0  0  0  0  0  0  0  0
   25.2869   25.7028   17.1787 C   0  0  0  0  0  0  0  0  0  0  0  0
   25.2933   24.8952   18.4649 C   0  0  0  0  0  0  0  0  0  0  0  0
   25.8970   23.5163   18.2658 C   0  0  0  0  0  0  0  0  0  0  0  0
   25.2326   22.7784   17.1122 C   0  0  0  0  0  0  0  0  0  0  0  0
   27.3409   22.7255   13.1899 C   0  0  0  0  0  0  0  0  0  0  0  0
   28.4266   23.0068   12.1701 C   0  0  0  0  0  0  0  0  0  0  0  0
   27.9979   24.3333   11.5757 C   0  0  0  0  0  0  0  0  0  0  0  0
   25.2773   22.0368   10.1184 S   0  0  0  0  0  0  0  0  0  0  0  0
   25.3016   22.1420    8.4133 C   0  0  0  0  0  0  0  0  0  0  0  0
   25.9192   25.5875    4.9662 C   0  0  0  0  0  0  0  0  0  0  0  0
   26.2318   26.8653    4.5281 C   0  0  0  0  0  0  0  0  0  0  0  0
   26.9860   27.7075    5.3235 C   0  0  0  0  0  0  0  0  0  0  0  0
   28.1061   28.9718    7.0356 H   0  0  0  0  0  0  0  0  0  0  0  0
   27.5476   25.6604    7.9533 H   0  0  0  0  0  0  0  0  0  0  0  0
   26.0174   25.1899   11.5837 H   0  0  0  0  0  0  0  0  0  0  0  0
   25.2082   21.8055   14.5833 H   0  0  0  0  0  0  0  0  0  0  0  0
   22.6789   23.3225   15.0035 H   0  0  0  0  0  0  0  0  0  0  0  0
   20.6730   21.8970   14.4444 H   0  0  0  0  0  0  0  0  0  0  0  0
   20.7375   19.6764   13.6777 H   0  0  0  0  0  0  0  0  0  0  0  0
   21.2796   19.0694   15.0901 H   0  0  0  0  0  0  0  0  0  0  0  0
   19.2029   19.4389   16.1738 H   0  0  0  0  0  0  0  0  0  0  0  0
   18.9617   18.5972   14.6089 H   0  0  0  0  0  0  0  0  0  0  0  0
   18.6347   20.3586   14.7300 H   0  0  0  0  0  0  0  0  0  0  0  0
   21.4803   20.6279   17.1370 H   0  0  0  0  0  0  0  0  0  0  0  0
   19.9975   21.5385   16.7970 H   0  0  0  0  0  0  0  0  0  0  0  0
   21.5532   22.3573   16.8478 H   0  0  0  0  0  0  0  0  0  0  0  0
   26.3445   23.7847   15.6025 H   0  0  0  0  0  0  0  0  0  0  0  0
   24.7273   25.5756   15.1168 H   0  0  0  0  0  0  0  0  0  0  0  0
   23.5683   24.8647   16.2152 H   0  0  0  0  0  0  0  0  0  0  0  0
   26.3114   25.9826   16.9121 H   0  0  0  0  0  0  0  0  0  0  0  0
   24.7448   26.6251   17.3623 H   0  0  0  0  0  0  0  0  0  0  0  0
   25.8473   25.4361   19.2369 H   0  0  0  0  0  0  0  0  0  0  0  0
   24.2687   24.7921   18.8340 H   0  0  0  0  0  0  0  0  0  0  0  0
   26.9704   23.6127   18.0702 H   0  0  0  0  0  0  0  0  0  0  0  0
   25.7947   22.9345   19.1872 H   0  0  0  0  0  0  0  0  0  0  0  0
   24.1929   22.5614   17.3817 H   0  0  0  0  0  0  0  0  0  0  0  0
   25.7289   21.8120   16.9758 H   0  0  0  0  0  0  0  0  0  0  0  0
   27.6201   23.1424   14.1595 H   0  0  0  0  0  0  0  0  0  0  0  0
   27.1390   21.6566   13.3120 H   0  0  0  0  0  0  0  0  0  0  0  0
   29.4246   23.0415   12.6175 H   0  0  0  0  0  0  0  0  0  0  0  0
   28.4339   22.2292   11.3981 H   0  0  0  0  0  0  0  0  0  0  0  0
   28.4789   24.5413   10.6141 H   0  0  0  0  0  0  0  0  0  0  0  0
   28.2690   25.1392   12.2678 H   0  0  0  0  0  0  0  0  0  0  0  0
   24.9014   21.3410    7.8083 H   0  0  0  0  0  0  0  0  0  0  0  0
   25.3030   24.9608    4.3282 H   0  0  0  0  0  0  0  0  0  0  0  0
   25.8614   27.2157    3.5699 H   0  0  0  0  0  0  0  0  0  0  0  0
   27.2108   28.7143    4.9879 H   0  0  0  0  0  0  0  0  0  0  0  0
  1 36  1  0  0  0  0
  1  2  1  0  0  0  0
  2  3  2  0  0  0  0
  2 35  1  0  0  0  0
  3 37  1  0  0  0  0
  3  4  1  0  0  0  0
  4 33  2  0  0  0  0
  4  5  1  0  0  0  0
  5  6  2  0  0  0  0
  5  7  1  0  0  0  0
  7 32  2  0  0  0  0
  7  8  1  0  0  0  0
  8  9  2  0  0  0  0
  9 31  1  0  0  0  0
 10  9  1  0  0  0  0
 10 38  1  0  0  0  0
 10 30  1  0  0  0  0
 10 11  1  0  0  0  0
 11 28  1  0  0  0  0
 11 12  1  0  0  0  0
 12 13  2  0  0  0  0
 14 12  1  0  0  0  0
 14 39  1  0  0  0  0
 14 15  1  0  0  0  0
 14 22  1  0  0  0  0
 15 40  1  0  0  0  0
 15 16  1  0  0  0  0
 16 17  2  0  0  0  0
 18 16  1  0  0  0  0
 18 41  1  0  0  0  0
 18 21  1  0  0  0  0
 18 19  1  0  0  0  0
 19 42  1  0  0  0  0
 19 43  1  0  0  0  0
 19 20  1  0  0  0  0
 20 44  1  0  0  0  0
 20 45  1  0  0  0  0
 20 46  1  0  0  0  0
 21 47  1  0  0  0  0
 21 48  1  0  0  0  0
 21 49  1  0  0  0  0
 22 50  1  0  0  0  0
 22 23  1  0  0  0  0
 22 27  1  0  0  0  0
 23 51  1  0  0  0  0
 23 52  1  0  0  0  0
 23 24  1  0  0  0  0
 24 53  1  0  0  0  0
 24 54  1  0  0  0  0
 24 25  1  0  0  0  0
 25 55  1  0  0  0  0
 25 56  1  0  0  0  0
 25 26  1  0  0  0  0
 26 57  1  0  0  0  0
 26 58  1  0  0  0  0
 26 27  1  0  0  0  0
 27 59  1  0  0  0  0
 27 60  1  0  0  0  0
 28 29  1  0  0  0  0
 28 61  1  0  0  0  0
 28 62  1  0  0  0  0
 29 30  1  0  0  0  0
 29 63  1  0  0  0  0
 29 64  1  0  0  0  0
 30 65  1  0  0  0  0
 30 66  1  0  0  0  0
 31 32  1  0  0  0  0
 32 67  1  0  0  0  0
 33 68  1  0  0  0  0
 33 34  1  0  0  0  0
 34 69  1  0  0  0  0
 34 35  2  0  0  0  0
 35 70  1  0  0  0  0
M  ZZC   1 o1
M  ZZC   2 c1
M  ZZC   3 c2
M  ZZC   4 c3
M  ZZC   5 c4
M  ZZC   6 o2
M  ZZC   7 c5
M  ZZC   8 n1
M  ZZC   9 c6
M  ZZC  10 c7
M  ZZC  11 n2
M  ZZC  12 c8
M  ZZC  13 o3
M  ZZC  14 c9
M  ZZC  15 n3
M  ZZC  16 c10
M  ZZC  17 o4
M  ZZC  18 c11
M  ZZC  19 n4
M  ZZC  20 c12
M  ZZC  21 c13
M  ZZC  22 c14
M  ZZC  23 c15
M  ZZC  24 c16
M  ZZC  25 c17
M  ZZC  26 c18
M  ZZC  27 c19
M  ZZC  28 c20
M  ZZC  29 c21
M  ZZC  30 c22
M  ZZC  31 s1
M  ZZC  32 c23
M  ZZC  33 c24
M  ZZC  34 c25
M  ZZC  35 c26
M  ZZC  36 h11
M  ZZC  37 h21
M  ZZC  38 h71
M  ZZC  39 h91
M  ZZC  40 h31
M  ZZC  41 h111
M  ZZC  42 h41
M  ZZC  43 h42
M  ZZC  44 h121
M  ZZC  45 h122
M  ZZC  46 h123
M  ZZC  47 h131
M  ZZC  48 h132
M  ZZC  49 h133
M  ZZC  50 h141
M  ZZC  51 h151
M  ZZC  52 h152
M  ZZC  53 h161
M  ZZC  54 h162
M  ZZC  55 h171
M  ZZC  56 h172
M  ZZC  57 h181
M  ZZC  58 h182
M  ZZC  59 h191
M  ZZC  60 h192
M  ZZC  61 h201
M  ZZC  62 h202
M  ZZC  63 h211
M  ZZC  64 h212
M  ZZC  65 h221
M  ZZC  66 h222
M  ZZC  67 h231
M  ZZC  68 h241
M  ZZC  69 h251
M  ZZC  70 h261
M  ZZM   1 6
M  ZZI   1 62
M  ZZM   2 37
M  ZZI   2 124
M  ZZM   3 37
M  ZZI   3 125
M  ZZM   4 37
M  ZZI   4 124
M  ZZM   5 3
M  ZZI   5 122
M  ZZM   6 7
M  ZZI   6 80
M  ZZM   7 64
M  ZZI   7 105
M  ZZM   8 66
M  ZZI   8 222
M  ZZM   9 63
M  ZZI   9 104
M  ZZM  10 1
M  ZZI  10 113
M  ZZM  11 10
M  ZZI  11 192
M  ZZM  12 3
M  ZZI  12 121
M  ZZM  13 7
M  ZZI  13 81
M  ZZM  14 1
M  ZZI  14 113
M  ZZM  15 10
M  ZZI  15 211
M  ZZM  16 3
M  ZZI  16 121
M  ZZM  17 7
M  ZZI  17 81
M  ZZM  18 1
M  ZZI  18 113
M  ZZM  19 34
M  ZZI  19 231
M  ZZM  20 1
M  ZZI  20 111
M  ZZM  21 1
M  ZZI  21 111
M  ZZM  22 1
M  ZZI  22 113
M  ZZM  23 1
M  ZZI  23 112
M  ZZM  24 1
M  ZZI  24 112
M  ZZM  25 1
M  ZZI  25 112
M  ZZM  26 1
M  ZZI  26 112
M  ZZM  27 1
M  ZZI  27 112
M  ZZM  28 1
M  ZZI  28 112
M  ZZM  29 1
M  ZZI  29 112
M  ZZM  30 1
M  ZZI  30 112
M  ZZM  31 44
M  ZZI  31 248
M  ZZM  32 63
M  ZZI  32 104
M  ZZM  33 37
M  ZZI  33 125
M  ZZM  34 37
M  ZZI  34 125
M  ZZM  35 37
M  ZZI  35 125
M  ZZM  36 29
M  ZZI  36 27
M  ZZM  37 5
M  ZZI  37 1
M  ZZM  38 5
M  ZZI  38 1
M  ZZM  39 5
M  ZZI  39 1
M  ZZM  40 28
M  ZZI  40 11
M  ZZM  41 5
M  ZZI  41 1
M  ZZM  42 36
M  ZZI  42 17
M  ZZM  43 36
M  ZZI  43 17
M  ZZM  44 5
M  ZZI  44 1
M  ZZM  45 5
M  ZZI  45 1
M  ZZM  46 5
M  ZZI  46 1
M  ZZM  47 5
M  ZZI  47 1
M  ZZM  48 5
M  ZZI  48 1
M  ZZM  49 5
M  ZZI  49 1
M  ZZM  50 5
M  ZZI  50 1
M  ZZM  51 5
M  ZZI  51 1
M  ZZM  52 5
M  ZZI  52 1
M  ZZM  53 5
M  ZZI  53 1
M  ZZM  54 5
M  ZZI  54 1
M  ZZM  55 5
M  ZZI  55 1
M  ZZM  56 5
M  ZZI  56 1
M  ZZM  57 5
M  ZZI  57 1
M  ZZM  58 5
M  ZZI  58 1
M  ZZM  59 5
M  ZZI  59 1
M  ZZM  60 5
M  ZZI  60 1
M  ZZM  61 5
M  ZZI  61 1
M  ZZM  62 5
M  ZZI  62 1
M  ZZM  63 5
M  ZZI  63 1
M  ZZM  64 5
M  ZZI  64 1
M  ZZM  65 5
M  ZZI  65 1
M  ZZM  66 5
M  ZZI  66 1
M  ZZM  67 5
M  ZZI  67 1
M  ZZM  68 5
M  ZZI  68 1
M  ZZM  69 5
M  ZZI  69 1
M  ZZM  70 5
M  ZZI  70 1
M  CHG  1  19   1
M  END
> <IX>
1

> <NAME>
IAPBIR2_4QNQ_56.pdb

> <Score>
-16.095617

> <Natom>
70

> <Nflex>
7

> <Hbond>
-3.25172

> <Hphob>
-5.289427

> <VwInt>
-51.660067

> <Dsolv>
16.369715

> <SolEl>
39.594908

> <Eintl>
7.875489

> <RecConf>
ND

> <projPath>
IAPBIR2_maps/

> <NAME_>
IAPBIR2_4QNQ_56.pdb

$$$$
