IAPBIR2_3KRR_1.pdb
  MOLSOFT 04032206403D

 82 85  0  0  1  0  0  0  0  0999 V2000
    8.9393   51.2741   21.6279 C   0  0  0  0  0  0  0  0  0  0  0  0
   10.3481   51.5699   22.0645 C   0  0  0  0  0  0  0  0  0  0  0  0
   10.8180   52.6976   22.0357 O   0  0  0  0  0  0  0  0  0  0  0  0
   11.0336   50.4430   22.4640 N   0  0  0  0  0  0  0  0  0  0  0  0
   12.4231   50.4909   22.9016 C   0  0  2  0  0  0  0  0  0  0  0  0
   13.4005   50.4546   21.7310 C   0  0  0  0  0  0  0  0  0  0  0  0
   13.7089   49.0503   21.5240 N   0  0  0  0  0  0  0  0  0  0  0  0
   14.5568   48.4988   20.5633 C   0  0  0  0  0  0  0  0  0  0  0  0
   14.7183   47.2889   20.4764 O   0  0  0  0  0  0  0  0  0  0  0  0
   15.3989   49.4625   19.7154 C   0  0  1  0  0  0  0  0  0  0  0  0
   16.6222   49.5850   20.5171 N   0  0  0  0  0  0  0  0  0  0  0  0
   16.9612   50.7464   21.1906 C   0  0  0  0  0  0  0  0  0  0  0  0
   16.4024   51.8197   21.0191 O   0  0  0  0  0  0  0  0  0  0  0  0
   18.1118   50.5862   22.1889 C   0  0  1  0  0  0  0  0  0  0  0  0
   19.4235   51.0660   21.6017 N   0  3  0  0  0  0  0  0  0  0  0  0
   20.6531   50.7426   22.3821 C   0  0  0  0  0  0  0  0  0  0  0  0
   17.7941   51.3777   23.4552 C   0  0  0  0  0  0  0  0  0  0  0  0
   15.6780   48.8605   18.3201 C   0  0  0  0  0  0  0  0  0  0  0  0
   14.3969   48.7734   17.4790 C   0  0  0  0  0  0  0  0  0  0  0  0
   14.6508   48.2085   16.0856 C   0  0  0  0  0  0  0  0  0  0  0  0
   15.7276   48.9751   15.3377 C   0  0  0  0  0  0  0  0  0  0  0  0
   17.0048   49.0884   16.1530 C   0  0  0  0  0  0  0  0  0  0  0  0
   16.7562   49.6334   17.5584 C   0  0  0  0  0  0  0  0  0  0  0  0
   13.2266   48.2401   22.6315 C   0  0  2  0  0  0  0  0  0  0  0  0
   12.0783   47.3106   22.2417 C   0  0  0  0  0  0  0  0  0  0  0  0
   10.9064   47.6575   22.2861 O   0  0  0  0  0  0  0  0  0  0  0  0
   12.5157   46.0642   21.8369 N   0  0  0  0  0  0  0  0  0  0  0  0
   11.6456   44.9288   21.5771 C   0  0  1  0  0  0  0  0  0  0  0  0
   10.7624   44.5951   22.7590 C   0  0  0  0  0  0  0  0  0  0  0  0
    9.3759   44.4591   22.6284 C   0  0  0  0  0  0  0  0  0  0  0  0
    8.6139   44.1093   23.7370 C   0  0  0  0  0  0  0  0  0  0  0  0
    9.1957   43.9783   24.9803 C   0  0  0  0  0  0  0  0  0  0  0  0
   10.5547   44.1578   25.1240 C   0  0  0  0  0  0  0  0  0  0  0  0
   11.3360   44.4279   24.0175 C   0  0  0  0  0  0  0  0  0  0  0  0
    8.6867   44.6529   21.3063 C   0  0  0  0  0  0  0  0  0  0  0  0
    9.4759   45.5494   20.3698 C   0  0  0  0  0  0  0  0  0  0  0  0
   10.9019   45.0498   20.2445 C   0  0  0  0  0  0  0  0  0  0  0  0
   12.8086   49.2508   23.6963 C   0  0  0  0  0  0  0  0  0  0  0  0
    8.4638   50.5750   22.3231 H   0  0  0  0  0  0  0  0  0  0  0  0
    8.9531   50.8362   20.6253 H   0  0  0  0  0  0  0  0  0  0  0  0
    8.3566   52.1999   21.6108 H   0  0  0  0  0  0  0  0  0  0  0  0
   10.5768   49.5352   22.3939 H   0  0  0  0  0  0  0  0  0  0  0  0
   12.5511   51.4051   23.4917 H   0  0  0  0  0  0  0  0  0  0  0  0
   13.0177   50.9023   20.8078 H   0  0  0  0  0  0  0  0  0  0  0  0
   14.3258   50.9595   22.0137 H   0  0  0  0  0  0  0  0  0  0  0  0
   14.9146   50.4386   19.6198 H   0  0  0  0  0  0  0  0  0  0  0  0
   17.1536   48.7351   20.6770 H   0  0  0  0  0  0  0  0  0  0  0  0
   18.2373   49.5272   22.4338 H   0  0  0  0  0  0  0  0  0  0  0  0
   19.5277   50.6324   20.6755 H   0  0  0  0  0  0  0  0  0  0  0  0
   19.3744   52.0804   21.4249 H   0  0  0  0  0  0  0  0  0  0  0  0
   20.6229   51.2835   23.3301 H   0  0  0  0  0  0  0  0  0  0  0  0
   21.5101   51.0730   21.7892 H   0  0  0  0  0  0  0  0  0  0  0  0
   20.6885   49.6615   22.5390 H   0  0  0  0  0  0  0  0  0  0  0  0
   17.7637   52.4546   23.2615 H   0  0  0  0  0  0  0  0  0  0  0  0
   18.5323   51.1998   24.2405 H   0  0  0  0  0  0  0  0  0  0  0  0
   16.8177   51.0871   23.8548 H   0  0  0  0  0  0  0  0  0  0  0  0
   16.0543   47.8475   18.4631 H   0  0  0  0  0  0  0  0  0  0  0  0
   13.6534   48.1451   17.9791 H   0  0  0  0  0  0  0  0  0  0  0  0
   13.9480   49.7681   17.3847 H   0  0  0  0  0  0  0  0  0  0  0  0
   14.9541   47.1638   16.1635 H   0  0  0  0  0  0  0  0  0  0  0  0
   13.7218   48.2183   15.5082 H   0  0  0  0  0  0  0  0  0  0  0  0
   15.9407   48.4760   14.3861 H   0  0  0  0  0  0  0  0  0  0  0  0
   15.3610   49.9783   15.0966 H   0  0  0  0  0  0  0  0  0  0  0  0
   17.4812   48.1079   16.2192 H   0  0  0  0  0  0  0  0  0  0  0  0
   17.7146   49.7261   15.6199 H   0  0  0  0  0  0  0  0  0  0  0  0
   16.4731   50.6889   17.4897 H   0  0  0  0  0  0  0  0  0  0  0  0
   17.6929   49.5852   18.1191 H   0  0  0  0  0  0  0  0  0  0  0  0
   14.0538   47.6254   22.9910 H   0  0  0  0  0  0  0  0  0  0  0  0
   13.5107   45.9512   21.6463 H   0  0  0  0  0  0  0  0  0  0  0  0
   12.3386   44.0912   21.4627 H   0  0  0  0  0  0  0  0  0  0  0  0
    7.5431   43.9572   23.6400 H   0  0  0  0  0  0  0  0  0  0  0  0
    8.5840   43.7364   25.8412 H   0  0  0  0  0  0  0  0  0  0  0  0
   11.0145   44.0607   26.1026 H   0  0  0  0  0  0  0  0  0  0  0  0
   12.4099   44.5214   24.1462 H   0  0  0  0  0  0  0  0  0  0  0  0
    8.5467   43.6756   20.8394 H   0  0  0  0  0  0  0  0  0  0  0  0
    7.6930   45.0873   21.4579 H   0  0  0  0  0  0  0  0  0  0  0  0
    9.0014   45.5497   19.3831 H   0  0  0  0  0  0  0  0  0  0  0  0
    9.4563   46.5833   20.7214 H   0  0  0  0  0  0  0  0  0  0  0  0
   11.4560   45.6690   19.5322 H   0  0  0  0  0  0  0  0  0  0  0  0
   10.8395   44.0514   19.8115 H   0  0  0  0  0  0  0  0  0  0  0  0
   13.6752   49.4851   24.3256 H   0  0  0  0  0  0  0  0  0  0  0  0
   12.0126   48.8897   24.3570 H   0  0  0  0  0  0  0  0  0  0  0  0
  1 39  1  0  0  0  0
  1 40  1  0  0  0  0
  1 41  1  0  0  0  0
  1  2  1  0  0  0  0
  2  3  2  0  0  0  0
  2  4  1  0  0  0  0
  4 42  1  0  0  0  0
  5  4  1  0  0  0  0
  5 43  1  0  0  0  0
  5 38  1  0  0  0  0
  5  6  1  0  0  0  0
  6  7  1  0  0  0  0
  6 44  1  0  0  0  0
  6 45  1  0  0  0  0
 24  7  1  0  0  0  0
  7  8  1  0  0  0  0
  8  9  2  0  0  0  0
 10  8  1  0  0  0  0
 10 46  1  0  0  0  0
 10 11  1  0  0  0  0
 10 18  1  0  0  0  0
 11 47  1  0  0  0  0
 11 12  1  0  0  0  0
 12 13  2  0  0  0  0
 14 12  1  0  0  0  0
 14 48  1  0  0  0  0
 14 17  1  0  0  0  0
 14 15  1  0  0  0  0
 15 49  1  0  0  0  0
 15 50  1  0  0  0  0
 15 16  1  0  0  0  0
 16 51  1  0  0  0  0
 16 52  1  0  0  0  0
 16 53  1  0  0  0  0
 17 54  1  0  0  0  0
 17 55  1  0  0  0  0
 17 56  1  0  0  0  0
 18 57  1  0  0  0  0
 18 19  1  0  0  0  0
 18 23  1  0  0  0  0
 19 58  1  0  0  0  0
 19 59  1  0  0  0  0
 19 20  1  0  0  0  0
 20 60  1  0  0  0  0
 20 61  1  0  0  0  0
 20 21  1  0  0  0  0
 21 62  1  0  0  0  0
 21 63  1  0  0  0  0
 21 22  1  0  0  0  0
 22 64  1  0  0  0  0
 22 65  1  0  0  0  0
 22 23  1  0  0  0  0
 23 66  1  0  0  0  0
 23 67  1  0  0  0  0
 24 38  1  0  0  0  0
 24 68  1  0  0  0  0
 24 25  1  0  0  0  0
 25 26  2  0  0  0  0
 25 27  1  0  0  0  0
 27 69  1  0  0  0  0
 28 27  1  0  0  0  0
 28 70  1  0  0  0  0
 28 29  1  0  0  0  0
 28 37  1  0  0  0  0
 29 30  2  0  0  0  0
 29 34  1  0  0  0  0
 30 35  1  0  0  0  0
 30 31  1  0  0  0  0
 31 71  1  0  0  0  0
 31 32  2  0  0  0  0
 32 72  1  0  0  0  0
 32 33  1  0  0  0  0
 33 73  1  0  0  0  0
 33 34  2  0  0  0  0
 34 74  1  0  0  0  0
 35 75  1  0  0  0  0
 35 76  1  0  0  0  0
 35 36  1  0  0  0  0
 36 77  1  0  0  0  0
 36 78  1  0  0  0  0
 36 37  1  0  0  0  0
 37 79  1  0  0  0  0
 37 80  1  0  0  0  0
 38 81  1  0  0  0  0
 38 82  1  0  0  0  0
M  ZZC   1 c1
M  ZZC   2 c2
M  ZZC   3 o1
M  ZZC   4 n1
M  ZZC   5 c3
M  ZZC   6 c4
M  ZZC   7 n2
M  ZZC   8 c5
M  ZZC   9 o2
M  ZZC  10 c6
M  ZZC  11 n3
M  ZZC  12 c7
M  ZZC  13 o3
M  ZZC  14 c8
M  ZZC  15 n4
M  ZZC  16 c9
M  ZZC  17 c10
M  ZZC  18 c11
M  ZZC  19 c12
M  ZZC  20 c13
M  ZZC  21 c14
M  ZZC  22 c15
M  ZZC  23 c16
M  ZZC  24 c17
M  ZZC  25 c18
M  ZZC  26 o4
M  ZZC  27 n5
M  ZZC  28 c19
M  ZZC  29 c20
M  ZZC  30 c21
M  ZZC  31 c22
M  ZZC  32 c23
M  ZZC  33 c24
M  ZZC  34 c25
M  ZZC  35 c26
M  ZZC  36 c27
M  ZZC  37 c28
M  ZZC  38 c29
M  ZZC  39 h11
M  ZZC  40 h12
M  ZZC  41 h13
M  ZZC  42 h01
M  ZZC  43 h31
M  ZZC  44 h41
M  ZZC  45 h42
M  ZZC  46 h61
M  ZZC  47 h02
M  ZZC  48 h81
M  ZZC  49 h03
M  ZZC  50 h04
M  ZZC  51 h91
M  ZZC  52 h92
M  ZZC  53 h93
M  ZZC  54 h101
M  ZZC  55 h102
M  ZZC  56 h103
M  ZZC  57 h111
M  ZZC  58 h121
M  ZZC  59 h122
M  ZZC  60 h131
M  ZZC  61 h132
M  ZZC  62 h141
M  ZZC  63 h142
M  ZZC  64 h151
M  ZZC  65 h152
M  ZZC  66 h161
M  ZZC  67 h162
M  ZZC  68 h171
M  ZZC  69 h51
M  ZZC  70 h191
M  ZZC  71 h221
M  ZZC  72 h231
M  ZZC  73 h241
M  ZZC  74 h251
M  ZZC  75 h261
M  ZZC  76 h262
M  ZZC  77 h271
M  ZZC  78 h272
M  ZZC  79 h281
M  ZZC  80 h282
M  ZZC  81 h291
M  ZZC  82 h292
M  ZZM   1 1
M  ZZI   1 111
M  ZZM   2 3
M  ZZI   2 121
M  ZZM   3 7
M  ZZI   3 81
M  ZZM   4 10
M  ZZI   4 211
M  ZZM   5 1
M  ZZI   5 113
M  ZZM   6 1
M  ZZI   6 112
M  ZZM   7 10
M  ZZI   7 192
M  ZZM   8 3
M  ZZI   8 121
M  ZZM   9 7
M  ZZI   9 81
M  ZZM  10 1
M  ZZI  10 113
M  ZZM  11 10
M  ZZI  11 211
M  ZZM  12 3
M  ZZI  12 121
M  ZZM  13 7
M  ZZI  13 81
M  ZZM  14 1
M  ZZI  14 113
M  ZZM  15 34
M  ZZI  15 231
M  ZZM  16 1
M  ZZI  16 111
M  ZZM  17 1
M  ZZI  17 111
M  ZZM  18 1
M  ZZI  18 113
M  ZZM  19 1
M  ZZI  19 112
M  ZZM  20 1
M  ZZI  20 112
M  ZZM  21 1
M  ZZI  21 112
M  ZZM  22 1
M  ZZI  22 112
M  ZZM  23 1
M  ZZI  23 112
M  ZZM  24 1
M  ZZI  24 113
M  ZZM  25 3
M  ZZI  25 121
M  ZZM  26 7
M  ZZI  26 81
M  ZZM  27 10
M  ZZI  27 211
M  ZZM  28 1
M  ZZI  28 113
M  ZZM  29 37
M  ZZI  29 124
M  ZZM  30 37
M  ZZI  30 124
M  ZZM  31 37
M  ZZI  31 125
M  ZZM  32 37
M  ZZI  32 125
M  ZZM  33 37
M  ZZI  33 125
M  ZZM  34 37
M  ZZI  34 125
M  ZZM  35 1
M  ZZI  35 112
M  ZZM  36 1
M  ZZI  36 112
M  ZZM  37 1
M  ZZI  37 112
M  ZZM  38 1
M  ZZI  38 112
M  ZZM  39 5
M  ZZI  39 1
M  ZZM  40 5
M  ZZI  40 1
M  ZZM  41 5
M  ZZI  41 1
M  ZZM  42 28
M  ZZI  42 11
M  ZZM  43 5
M  ZZI  43 1
M  ZZM  44 5
M  ZZI  44 1
M  ZZM  45 5
M  ZZI  45 1
M  ZZM  46 5
M  ZZI  46 1
M  ZZM  47 28
M  ZZI  47 11
M  ZZM  48 5
M  ZZI  48 1
M  ZZM  49 36
M  ZZI  49 17
M  ZZM  50 36
M  ZZI  50 17
M  ZZM  51 5
M  ZZI  51 1
M  ZZM  52 5
M  ZZI  52 1
M  ZZM  53 5
M  ZZI  53 1
M  ZZM  54 5
M  ZZI  54 1
M  ZZM  55 5
M  ZZI  55 1
M  ZZM  56 5
M  ZZI  56 1
M  ZZM  57 5
M  ZZI  57 1
M  ZZM  58 5
M  ZZI  58 1
M  ZZM  59 5
M  ZZI  59 1
M  ZZM  60 5
M  ZZI  60 1
M  ZZM  61 5
M  ZZI  61 1
M  ZZM  62 5
M  ZZI  62 1
M  ZZM  63 5
M  ZZI  63 1
M  ZZM  64 5
M  ZZI  64 1
M  ZZM  65 5
M  ZZI  65 1
M  ZZM  66 5
M  ZZI  66 1
M  ZZM  67 5
M  ZZI  67 1
M  ZZM  68 5
M  ZZI  68 1
M  ZZM  69 28
M  ZZI  69 11
M  ZZM  70 5
M  ZZI  70 1
M  ZZM  71 5
M  ZZI  71 1
M  ZZM  72 5
M  ZZI  72 1
M  ZZM  73 5
M  ZZI  73 1
M  ZZM  74 5
M  ZZI  74 1
M  ZZM  75 5
M  ZZI  75 1
M  ZZM  76 5
M  ZZI  76 1
M  ZZM  77 5
M  ZZI  77 1
M  ZZM  78 5
M  ZZI  78 1
M  ZZM  79 5
M  ZZI  79 1
M  ZZM  80 5
M  ZZI  80 1
M  ZZM  81 5
M  ZZI  81 1
M  ZZM  82 5
M  ZZI  82 1
M  CHG  1  15   1
M  END
> <IX>
1

> <NAME>
IAPBIR2_3KRR_1.pdb

> <Score>
-23.559454

> <Natom>
82

> <Nflex>
9

> <Hbond>
-4.318667

> <Hphob>
-4.666501

> <VwInt>
-57.490491

> <Dsolv>
18.124909

> <SolEl>
30.483547

> <Eintl>
14.784996

> <RecConf>
ND

> <projPath>
IAPBIR2_maps/

> <NAME_>
IAPBIR2_3KRR_1.pdb

$$$$
