IAPBIR2_4QNQ_57.pdb
  MOLSOFT 04032206373D

 70 73  0  0  1  0  0  0  0  0999 V2000
   20.2172   52.8420   11.2996 O   0  0  0  0  0  0  0  0  0  0  0  0
   19.0486   52.1411   11.5194 C   0  0  0  0  0  0  0  0  0  0  0  0
   18.3232   52.3307   12.6861 C   0  0  0  0  0  0  0  0  0  0  0  0
   17.1996   51.5423   12.9095 C   0  0  0  0  0  0  0  0  0  0  0  0
   16.4847   51.6443   14.2160 C   0  0  0  0  0  0  0  0  0  0  0  0
   16.2924   52.7487   14.7109 O   0  0  0  0  0  0  0  0  0  0  0  0
   16.0630   50.3967   14.8347 C   0  0  0  0  0  0  0  0  0  0  0  0
   14.8650   50.2735   15.5220 N   0  0  0  0  0  0  0  0  0  0  0  0
   14.6647   49.0116   15.8623 C   0  0  0  0  0  0  0  0  0  0  0  0
   13.4180   48.4388   16.4777 C   0  0  1  0  0  0  0  0  0  0  0  0
   13.2794   48.7254   17.9031 N   0  0  0  0  0  0  0  0  0  0  0  0
   14.0308   48.0559   18.8706 C   0  0  0  0  0  0  0  0  0  0  0  0
   14.9871   47.3608   18.5630 O   0  0  0  0  0  0  0  0  0  0  0  0
   13.6058   48.1819   20.3471 C   0  0  2  0  0  0  0  0  0  0  0  0
   14.8489   48.4570   21.0786 N   0  0  0  0  0  0  0  0  0  0  0  0
   15.4028   49.7272   21.1055 C   0  0  0  0  0  0  0  0  0  0  0  0
   14.9115   50.6866   20.5282 O   0  0  0  0  0  0  0  0  0  0  0  0
   16.6907   49.8671   21.9205 C   0  0  1  0  0  0  0  0  0  0  0  0
   17.7501   50.6265   21.1423 N   0  3  0  0  0  0  0  0  0  0  0  0
   19.0461   50.8826   21.8466 C   0  0  0  0  0  0  0  0  0  0  0  0
   16.3722   50.6125   23.2144 C   0  0  0  0  0  0  0  0  0  0  0  0
   12.9427   46.8691   20.8468 C   0  0  0  0  0  0  0  0  0  0  0  0
   12.6317   46.9051   22.3456 C   0  0  0  0  0  0  0  0  0  0  0  0
   12.1040   45.5574   22.8396 C   0  0  0  0  0  0  0  0  0  0  0  0
   10.8612   45.1281   22.0784 C   0  0  0  0  0  0  0  0  0  0  0  0
   11.0992   45.1524   20.5781 C   0  0  0  0  0  0  0  0  0  0  0  0
   11.6545   46.4931   20.0973 C   0  0  0  0  0  0  0  0  0  0  0  0
   12.1814   49.6386   18.1474 C   0  0  0  0  0  0  0  0  0  0  0  0
   11.7836   50.1502   16.7777 C   0  0  0  0  0  0  0  0  0  0  0  0
   12.1446   48.9998   15.8598 C   0  0  0  0  0  0  0  0  0  0  0  0
   15.9224   47.9335   15.4073 S   0  0  0  0  0  0  0  0  0  0  0  0
   16.8070   49.2372   14.7781 C   0  0  0  0  0  0  0  0  0  0  0  0
   16.7675   50.6484   11.9278 C   0  0  0  0  0  0  0  0  0  0  0  0
   17.4812   50.5135   10.7489 C   0  0  0  0  0  0  0  0  0  0  0  0
   18.6396   51.2445   10.5516 C   0  0  0  0  0  0  0  0  0  0  0  0
   20.4358   53.3056   12.1263 H   0  0  0  0  0  0  0  0  0  0  0  0
   18.6575   53.0423   13.4358 H   0  0  0  0  0  0  0  0  0  0  0  0
   13.4249   47.3547   16.3480 H   0  0  0  0  0  0  0  0  0  0  0  0
   12.9331   49.0305   20.4975 H   0  0  0  0  0  0  0  0  0  0  0  0
   15.3328   47.6675   21.5022 H   0  0  0  0  0  0  0  0  0  0  0  0
   17.1065   48.8766   22.1357 H   0  0  0  0  0  0  0  0  0  0  0  0
   17.9582   50.0937   20.2875 H   0  0  0  0  0  0  0  0  0  0  0  0
   17.3622   51.5185   20.8025 H   0  0  0  0  0  0  0  0  0  0  0  0
   18.8838   51.6483   22.6089 H   0  0  0  0  0  0  0  0  0  0  0  0
   19.7637   51.2397   21.1033 H   0  0  0  0  0  0  0  0  0  0  0  0
   19.3958   49.9484   22.2949 H   0  0  0  0  0  0  0  0  0  0  0  0
   16.1317   51.6631   23.0232 H   0  0  0  0  0  0  0  0  0  0  0  0
   17.2126   50.5774   23.9137 H   0  0  0  0  0  0  0  0  0  0  0  0
   15.5079   50.1711   23.7191 H   0  0  0  0  0  0  0  0  0  0  0  0
   13.6593   46.0577   20.6983 H   0  0  0  0  0  0  0  0  0  0  0  0
   13.5272   47.1731   22.9069 H   0  0  0  0  0  0  0  0  0  0  0  0
   11.8957   47.6878   22.5591 H   0  0  0  0  0  0  0  0  0  0  0  0
   12.8769   44.7899   22.7254 H   0  0  0  0  0  0  0  0  0  0  0  0
   11.8759   45.6090   23.9080 H   0  0  0  0  0  0  0  0  0  0  0  0
   10.5638   44.1221   22.3920 H   0  0  0  0  0  0  0  0  0  0  0  0
   10.0304   45.7963   22.3274 H   0  0  0  0  0  0  0  0  0  0  0  0
   11.8019   44.3530   20.3309 H   0  0  0  0  0  0  0  0  0  0  0  0
   10.1670   44.9245   20.0522 H   0  0  0  0  0  0  0  0  0  0  0  0
   10.8982   47.2710   20.2451 H   0  0  0  0  0  0  0  0  0  0  0  0
   11.8255   46.4326   19.0186 H   0  0  0  0  0  0  0  0  0  0  0  0
   11.3638   49.0793   18.6131 H   0  0  0  0  0  0  0  0  0  0  0  0
   12.4883   50.4437   18.8223 H   0  0  0  0  0  0  0  0  0  0  0  0
   10.7255   50.4241   16.7232 H   0  0  0  0  0  0  0  0  0  0  0  0
   12.3722   51.0377   16.5208 H   0  0  0  0  0  0  0  0  0  0  0  0
   12.2511   49.3083   14.8144 H   0  0  0  0  0  0  0  0  0  0  0  0
   11.3521   48.2430   15.9027 H   0  0  0  0  0  0  0  0  0  0  0  0
   17.7841   49.0864   14.3488 H   0  0  0  0  0  0  0  0  0  0  0  0
   15.8736   50.0465   12.0659 H   0  0  0  0  0  0  0  0  0  0  0  0
   17.1379   49.8209    9.9869 H   0  0  0  0  0  0  0  0  0  0  0  0
   19.2227   51.1202    9.6447 H   0  0  0  0  0  0  0  0  0  0  0  0
  1 36  1  0  0  0  0
  1  2  1  0  0  0  0
  2  3  2  0  0  0  0
  2 35  1  0  0  0  0
  3 37  1  0  0  0  0
  3  4  1  0  0  0  0
  4 33  2  0  0  0  0
  4  5  1  0  0  0  0
  5  6  2  0  0  0  0
  5  7  1  0  0  0  0
  7 32  2  0  0  0  0
  7  8  1  0  0  0  0
  8  9  2  0  0  0  0
  9 31  1  0  0  0  0
 10  9  1  0  0  0  0
 10 38  1  0  0  0  0
 10 30  1  0  0  0  0
 10 11  1  0  0  0  0
 11 28  1  0  0  0  0
 11 12  1  0  0  0  0
 12 13  2  0  0  0  0
 14 12  1  0  0  0  0
 14 39  1  0  0  0  0
 14 15  1  0  0  0  0
 14 22  1  0  0  0  0
 15 40  1  0  0  0  0
 15 16  1  0  0  0  0
 16 17  2  0  0  0  0
 18 16  1  0  0  0  0
 18 41  1  0  0  0  0
 18 21  1  0  0  0  0
 18 19  1  0  0  0  0
 19 42  1  0  0  0  0
 19 43  1  0  0  0  0
 19 20  1  0  0  0  0
 20 44  1  0  0  0  0
 20 45  1  0  0  0  0
 20 46  1  0  0  0  0
 21 47  1  0  0  0  0
 21 48  1  0  0  0  0
 21 49  1  0  0  0  0
 22 50  1  0  0  0  0
 22 23  1  0  0  0  0
 22 27  1  0  0  0  0
 23 51  1  0  0  0  0
 23 52  1  0  0  0  0
 23 24  1  0  0  0  0
 24 53  1  0  0  0  0
 24 54  1  0  0  0  0
 24 25  1  0  0  0  0
 25 55  1  0  0  0  0
 25 56  1  0  0  0  0
 25 26  1  0  0  0  0
 26 57  1  0  0  0  0
 26 58  1  0  0  0  0
 26 27  1  0  0  0  0
 27 59  1  0  0  0  0
 27 60  1  0  0  0  0
 28 29  1  0  0  0  0
 28 61  1  0  0  0  0
 28 62  1  0  0  0  0
 29 30  1  0  0  0  0
 29 63  1  0  0  0  0
 29 64  1  0  0  0  0
 30 65  1  0  0  0  0
 30 66  1  0  0  0  0
 31 32  1  0  0  0  0
 32 67  1  0  0  0  0
 33 68  1  0  0  0  0
 33 34  1  0  0  0  0
 34 69  1  0  0  0  0
 34 35  2  0  0  0  0
 35 70  1  0  0  0  0
M  ZZC   1 o1
M  ZZC   2 c1
M  ZZC   3 c2
M  ZZC   4 c3
M  ZZC   5 c4
M  ZZC   6 o2
M  ZZC   7 c5
M  ZZC   8 n1
M  ZZC   9 c6
M  ZZC  10 c7
M  ZZC  11 n2
M  ZZC  12 c8
M  ZZC  13 o3
M  ZZC  14 c9
M  ZZC  15 n3
M  ZZC  16 c10
M  ZZC  17 o4
M  ZZC  18 c11
M  ZZC  19 n4
M  ZZC  20 c12
M  ZZC  21 c13
M  ZZC  22 c14
M  ZZC  23 c15
M  ZZC  24 c16
M  ZZC  25 c17
M  ZZC  26 c18
M  ZZC  27 c19
M  ZZC  28 c20
M  ZZC  29 c21
M  ZZC  30 c22
M  ZZC  31 s1
M  ZZC  32 c23
M  ZZC  33 c24
M  ZZC  34 c25
M  ZZC  35 c26
M  ZZC  36 h11
M  ZZC  37 h21
M  ZZC  38 h71
M  ZZC  39 h91
M  ZZC  40 h31
M  ZZC  41 h111
M  ZZC  42 h41
M  ZZC  43 h42
M  ZZC  44 h121
M  ZZC  45 h122
M  ZZC  46 h123
M  ZZC  47 h131
M  ZZC  48 h132
M  ZZC  49 h133
M  ZZC  50 h141
M  ZZC  51 h151
M  ZZC  52 h152
M  ZZC  53 h161
M  ZZC  54 h162
M  ZZC  55 h171
M  ZZC  56 h172
M  ZZC  57 h181
M  ZZC  58 h182
M  ZZC  59 h191
M  ZZC  60 h192
M  ZZC  61 h201
M  ZZC  62 h202
M  ZZC  63 h211
M  ZZC  64 h212
M  ZZC  65 h221
M  ZZC  66 h222
M  ZZC  67 h231
M  ZZC  68 h241
M  ZZC  69 h251
M  ZZC  70 h261
M  ZZM   1 6
M  ZZI   1 62
M  ZZM   2 37
M  ZZI   2 124
M  ZZM   3 37
M  ZZI   3 125
M  ZZM   4 37
M  ZZI   4 124
M  ZZM   5 3
M  ZZI   5 122
M  ZZM   6 7
M  ZZI   6 80
M  ZZM   7 64
M  ZZI   7 105
M  ZZM   8 66
M  ZZI   8 222
M  ZZM   9 63
M  ZZI   9 104
M  ZZM  10 1
M  ZZI  10 113
M  ZZM  11 10
M  ZZI  11 192
M  ZZM  12 3
M  ZZI  12 121
M  ZZM  13 7
M  ZZI  13 81
M  ZZM  14 1
M  ZZI  14 113
M  ZZM  15 10
M  ZZI  15 211
M  ZZM  16 3
M  ZZI  16 121
M  ZZM  17 7
M  ZZI  17 81
M  ZZM  18 1
M  ZZI  18 113
M  ZZM  19 34
M  ZZI  19 231
M  ZZM  20 1
M  ZZI  20 111
M  ZZM  21 1
M  ZZI  21 111
M  ZZM  22 1
M  ZZI  22 113
M  ZZM  23 1
M  ZZI  23 112
M  ZZM  24 1
M  ZZI  24 112
M  ZZM  25 1
M  ZZI  25 112
M  ZZM  26 1
M  ZZI  26 112
M  ZZM  27 1
M  ZZI  27 112
M  ZZM  28 1
M  ZZI  28 112
M  ZZM  29 1
M  ZZI  29 112
M  ZZM  30 1
M  ZZI  30 112
M  ZZM  31 44
M  ZZI  31 248
M  ZZM  32 63
M  ZZI  32 104
M  ZZM  33 37
M  ZZI  33 125
M  ZZM  34 37
M  ZZI  34 125
M  ZZM  35 37
M  ZZI  35 125
M  ZZM  36 29
M  ZZI  36 27
M  ZZM  37 5
M  ZZI  37 1
M  ZZM  38 5
M  ZZI  38 1
M  ZZM  39 5
M  ZZI  39 1
M  ZZM  40 28
M  ZZI  40 11
M  ZZM  41 5
M  ZZI  41 1
M  ZZM  42 36
M  ZZI  42 17
M  ZZM  43 36
M  ZZI  43 17
M  ZZM  44 5
M  ZZI  44 1
M  ZZM  45 5
M  ZZI  45 1
M  ZZM  46 5
M  ZZI  46 1
M  ZZM  47 5
M  ZZI  47 1
M  ZZM  48 5
M  ZZI  48 1
M  ZZM  49 5
M  ZZI  49 1
M  ZZM  50 5
M  ZZI  50 1
M  ZZM  51 5
M  ZZI  51 1
M  ZZM  52 5
M  ZZI  52 1
M  ZZM  53 5
M  ZZI  53 1
M  ZZM  54 5
M  ZZI  54 1
M  ZZM  55 5
M  ZZI  55 1
M  ZZM  56 5
M  ZZI  56 1
M  ZZM  57 5
M  ZZI  57 1
M  ZZM  58 5
M  ZZI  58 1
M  ZZM  59 5
M  ZZI  59 1
M  ZZM  60 5
M  ZZI  60 1
M  ZZM  61 5
M  ZZI  61 1
M  ZZM  62 5
M  ZZI  62 1
M  ZZM  63 5
M  ZZI  63 1
M  ZZM  64 5
M  ZZI  64 1
M  ZZM  65 5
M  ZZI  65 1
M  ZZM  66 5
M  ZZI  66 1
M  ZZM  67 5
M  ZZI  67 1
M  ZZM  68 5
M  ZZI  68 1
M  ZZM  69 5
M  ZZI  69 1
M  ZZM  70 5
M  ZZI  70 1
M  CHG  1  19   1
M  END
> <IX>
1

> <NAME>
IAPBIR2_4QNQ_57.pdb

> <Score>
-17.841626

> <Natom>
70

> <Nflex>
7

> <Hbond>
-4.282906

> <Hphob>
-5.048187

> <VwInt>
-47.869739

> <Dsolv>
15.283358

> <SolEl>
31.220746

> <Eintl>
13.296564

> <RecConf>
ND

> <projPath>
IAPBIR2_maps/

> <NAME_>
IAPBIR2_4QNQ_57.pdb

$$$$
