IAPBIR2_3KRR_7.pdb
  MOLSOFT 04032206393D

 82 85  0  0  1  0  0  0  0  0999 V2000
   27.3424   27.3836   18.3144 C   0  0  0  0  0  0  0  0  0  0  0  0
   26.8904   27.0401   16.9230 C   0  0  0  0  0  0  0  0  0  0  0  0
   27.1669   27.7495   15.9677 O   0  0  0  0  0  0  0  0  0  0  0  0
   26.1255   25.8890   16.8694 N   0  0  0  0  0  0  0  0  0  0  0  0
   25.4048   25.4865   15.6668 C   0  0  1  0  0  0  0  0  0  0  0  0
   26.1867   24.6674   14.6467 C   0  0  0  0  0  0  0  0  0  0  0  0
   25.1497   24.0051   13.8653 N   0  0  0  0  0  0  0  0  0  0  0  0
   25.1468   23.7688   12.4840 C   0  0  0  0  0  0  0  0  0  0  0  0
   24.1121   23.5268   11.8791 O   0  0  0  0  0  0  0  0  0  0  0  0
   26.4800   23.7562   11.7183 C   0  0  2  0  0  0  0  0  0  0  0  0
   26.2027   24.2549   10.3628 N   0  0  0  0  0  0  0  0  0  0  0  0
   27.1922   24.5865    9.4484 C   0  0  0  0  0  0  0  0  0  0  0  0
   28.3872   24.5464    9.7037 O   0  0  0  0  0  0  0  0  0  0  0  0
   26.6782   24.9485    8.0436 C   0  0  2  0  0  0  0  0  0  0  0  0
   26.9265   23.8459    7.0334 N   0  3  0  0  0  0  0  0  0  0  0  0
   26.2419   22.5503    7.3198 C   0  0  0  0  0  0  0  0  0  0  0  0
   27.3704   26.2011    7.5171 C   0  0  0  0  0  0  0  0  0  0  0  0
   27.0767   22.3272   11.6701 C   0  0  0  0  0  0  0  0  0  0  0  0
   27.6307   21.8732   13.0249 C   0  0  0  0  0  0  0  0  0  0  0  0
   28.2852   20.5000   12.9299 C   0  0  0  0  0  0  0  0  0  0  0  0
   27.3336   19.4599   12.3522 C   0  0  0  0  0  0  0  0  0  0  0  0
   26.7552   19.9084   11.0173 C   0  0  0  0  0  0  0  0  0  0  0  0
   26.0935   21.2743   11.1319 C   0  0  0  0  0  0  0  0  0  0  0  0
   23.9120   23.8883   14.6443 C   0  0  1  0  0  0  0  0  0  0  0  0
   23.4896   22.4269   14.8883 C   0  0  0  0  0  0  0  0  0  0  0  0
   23.8537   21.4951   14.1831 O   0  0  0  0  0  0  0  0  0  0  0  0
   22.5974   22.2750   15.9382 N   0  0  0  0  0  0  0  0  0  0  0  0
   22.1156   20.9864   16.4142 C   0  0  1  0  0  0  0  0  0  0  0  0
   21.4763   21.1756   17.7757 C   0  0  0  0  0  0  0  0  0  0  0  0
   20.0939   21.0666   17.9726 C   0  0  0  0  0  0  0  0  0  0  0  0
   19.5574   21.3013   19.2327 C   0  0  0  0  0  0  0  0  0  0  0  0
   20.3626   21.6766   20.2896 C   0  0  0  0  0  0  0  0  0  0  0  0
   21.7229   21.7986   20.1022 C   0  0  0  0  0  0  0  0  0  0  0  0
   22.2731   21.5409   18.8605 C   0  0  0  0  0  0  0  0  0  0  0  0
   19.1675   20.6702   16.8605 C   0  0  0  0  0  0  0  0  0  0  0  0
   19.7761   20.9114   15.4965 C   0  0  0  0  0  0  0  0  0  0  0  0
   21.1651   20.3158   15.4139 C   0  0  0  0  0  0  0  0  0  0  0  0
   24.2161   24.6058   15.9626 C   0  0  0  0  0  0  0  0  0  0  0  0
   27.9326   26.5630   18.7324 H   0  0  0  0  0  0  0  0  0  0  0  0
   26.4697   27.5666   18.9474 H   0  0  0  0  0  0  0  0  0  0  0  0
   27.9529   28.2915   18.2914 H   0  0  0  0  0  0  0  0  0  0  0  0
   25.9952   25.3507   17.7196 H   0  0  0  0  0  0  0  0  0  0  0  0
   25.0290   26.3949   15.1990 H   0  0  0  0  0  0  0  0  0  0  0  0
   26.8369   25.2920   14.0291 H   0  0  0  0  0  0  0  0  0  0  0  0
   26.7957   23.8978   15.1322 H   0  0  0  0  0  0  0  0  0  0  0  0
   27.1960   24.4518   12.1633 H   0  0  0  0  0  0  0  0  0  0  0  0
   25.2298   24.4305   10.1283 H   0  0  0  0  0  0  0  0  0  0  0  0
   25.5985   25.1056    8.0470 H   0  0  0  0  0  0  0  0  0  0  0  0
   26.6226   24.1724    6.1054 H   0  0  0  0  0  0  0  0  0  0  0  0
   27.9393   23.6769    6.9486 H   0  0  0  0  0  0  0  0  0  0  0  0
   26.7314   22.0871    8.1792 H   0  0  0  0  0  0  0  0  0  0  0  0
   26.3530   21.9166    6.4360 H   0  0  0  0  0  0  0  0  0  0  0  0
   25.1855   22.7497    7.5179 H   0  0  0  0  0  0  0  0  0  0  0  0
   26.9685   26.4923    6.5416 H   0  0  0  0  0  0  0  0  0  0  0  0
   28.4494   26.0543    7.4089 H   0  0  0  0  0  0  0  0  0  0  0  0
   27.2254   27.0399    8.1989 H   0  0  0  0  0  0  0  0  0  0  0  0
   27.9262   22.3494   10.9786 H   0  0  0  0  0  0  0  0  0  0  0  0
   28.3637   22.5976   13.3948 H   0  0  0  0  0  0  0  0  0  0  0  0
   26.8294   21.8229   13.7685 H   0  0  0  0  0  0  0  0  0  0  0  0
   29.1802   20.5646   12.3016 H   0  0  0  0  0  0  0  0  0  0  0  0
   28.6207   20.1814   13.9218 H   0  0  0  0  0  0  0  0  0  0  0  0
   27.8570   18.5068   12.2275 H   0  0  0  0  0  0  0  0  0  0  0  0
   26.5162   19.2804   13.0594 H   0  0  0  0  0  0  0  0  0  0  0  0
   27.5486   19.9456   10.2633 H   0  0  0  0  0  0  0  0  0  0  0  0
   26.0247   19.1722   10.6681 H   0  0  0  0  0  0  0  0  0  0  0  0
   25.2277   21.1805   11.7939 H   0  0  0  0  0  0  0  0  0  0  0  0
   25.6980   21.5678   10.1558 H   0  0  0  0  0  0  0  0  0  0  0  0
   23.1022   24.3873   14.0993 H   0  0  0  0  0  0  0  0  0  0  0  0
   22.3531   23.0801   16.5038 H   0  0  0  0  0  0  0  0  0  0  0  0
   22.9955   20.3408   16.5176 H   0  0  0  0  0  0  0  0  0  0  0  0
   18.4869   21.2159   19.3942 H   0  0  0  0  0  0  0  0  0  0  0  0
   19.9225   21.8792   21.2609 H   0  0  0  0  0  0  0  0  0  0  0  0
   22.3589   22.0994   20.9283 H   0  0  0  0  0  0  0  0  0  0  0  0
   23.3459   21.6521   18.7345 H   0  0  0  0  0  0  0  0  0  0  0  0
   18.9384   19.6073   16.9721 H   0  0  0  0  0  0  0  0  0  0  0  0
   18.2308   21.2330   16.9313 H   0  0  0  0  0  0  0  0  0  0  0  0
   19.1306   20.4765   14.7274 H   0  0  0  0  0  0  0  0  0  0  0  0
   19.8426   21.9846   15.3148 H   0  0  0  0  0  0  0  0  0  0  0  0
   21.5335   20.4063   14.3886 H   0  0  0  0  0  0  0  0  0  0  0  0
   21.1010   19.2429   15.6270 H   0  0  0  0  0  0  0  0  0  0  0  0
   24.4572   23.9041   16.7696 H   0  0  0  0  0  0  0  0  0  0  0  0
   23.3701   25.2115   16.2957 H   0  0  0  0  0  0  0  0  0  0  0  0
  1 39  1  0  0  0  0
  1 40  1  0  0  0  0
  1 41  1  0  0  0  0
  1  2  1  0  0  0  0
  2  3  2  0  0  0  0
  2  4  1  0  0  0  0
  4 42  1  0  0  0  0
  5  4  1  0  0  0  0
  5 43  1  0  0  0  0
  5 38  1  0  0  0  0
  5  6  1  0  0  0  0
  6  7  1  0  0  0  0
  6 44  1  0  0  0  0
  6 45  1  0  0  0  0
 24  7  1  0  0  0  0
  7  8  1  0  0  0  0
  8  9  2  0  0  0  0
 10  8  1  0  0  0  0
 10 46  1  0  0  0  0
 10 11  1  0  0  0  0
 10 18  1  0  0  0  0
 11 47  1  0  0  0  0
 11 12  1  0  0  0  0
 12 13  2  0  0  0  0
 14 12  1  0  0  0  0
 14 48  1  0  0  0  0
 14 17  1  0  0  0  0
 14 15  1  0  0  0  0
 15 49  1  0  0  0  0
 15 50  1  0  0  0  0
 15 16  1  0  0  0  0
 16 51  1  0  0  0  0
 16 52  1  0  0  0  0
 16 53  1  0  0  0  0
 17 54  1  0  0  0  0
 17 55  1  0  0  0  0
 17 56  1  0  0  0  0
 18 57  1  0  0  0  0
 18 19  1  0  0  0  0
 18 23  1  0  0  0  0
 19 58  1  0  0  0  0
 19 59  1  0  0  0  0
 19 20  1  0  0  0  0
 20 60  1  0  0  0  0
 20 61  1  0  0  0  0
 20 21  1  0  0  0  0
 21 62  1  0  0  0  0
 21 63  1  0  0  0  0
 21 22  1  0  0  0  0
 22 64  1  0  0  0  0
 22 65  1  0  0  0  0
 22 23  1  0  0  0  0
 23 66  1  0  0  0  0
 23 67  1  0  0  0  0
 24 38  1  0  0  0  0
 24 68  1  0  0  0  0
 24 25  1  0  0  0  0
 25 26  2  0  0  0  0
 25 27  1  0  0  0  0
 27 69  1  0  0  0  0
 28 27  1  0  0  0  0
 28 70  1  0  0  0  0
 28 29  1  0  0  0  0
 28 37  1  0  0  0  0
 29 30  2  0  0  0  0
 29 34  1  0  0  0  0
 30 35  1  0  0  0  0
 30 31  1  0  0  0  0
 31 71  1  0  0  0  0
 31 32  2  0  0  0  0
 32 72  1  0  0  0  0
 32 33  1  0  0  0  0
 33 73  1  0  0  0  0
 33 34  2  0  0  0  0
 34 74  1  0  0  0  0
 35 75  1  0  0  0  0
 35 76  1  0  0  0  0
 35 36  1  0  0  0  0
 36 77  1  0  0  0  0
 36 78  1  0  0  0  0
 36 37  1  0  0  0  0
 37 79  1  0  0  0  0
 37 80  1  0  0  0  0
 38 81  1  0  0  0  0
 38 82  1  0  0  0  0
M  ZZC   1 c1
M  ZZC   2 c2
M  ZZC   3 o1
M  ZZC   4 n1
M  ZZC   5 c3
M  ZZC   6 c4
M  ZZC   7 n2
M  ZZC   8 c5
M  ZZC   9 o2
M  ZZC  10 c6
M  ZZC  11 n3
M  ZZC  12 c7
M  ZZC  13 o3
M  ZZC  14 c8
M  ZZC  15 n4
M  ZZC  16 c9
M  ZZC  17 c10
M  ZZC  18 c11
M  ZZC  19 c12
M  ZZC  20 c13
M  ZZC  21 c14
M  ZZC  22 c15
M  ZZC  23 c16
M  ZZC  24 c17
M  ZZC  25 c18
M  ZZC  26 o4
M  ZZC  27 n5
M  ZZC  28 c19
M  ZZC  29 c20
M  ZZC  30 c21
M  ZZC  31 c22
M  ZZC  32 c23
M  ZZC  33 c24
M  ZZC  34 c25
M  ZZC  35 c26
M  ZZC  36 c27
M  ZZC  37 c28
M  ZZC  38 c29
M  ZZC  39 h11
M  ZZC  40 h12
M  ZZC  41 h13
M  ZZC  42 h01
M  ZZC  43 h31
M  ZZC  44 h41
M  ZZC  45 h42
M  ZZC  46 h61
M  ZZC  47 h02
M  ZZC  48 h81
M  ZZC  49 h03
M  ZZC  50 h04
M  ZZC  51 h91
M  ZZC  52 h92
M  ZZC  53 h93
M  ZZC  54 h101
M  ZZC  55 h102
M  ZZC  56 h103
M  ZZC  57 h111
M  ZZC  58 h121
M  ZZC  59 h122
M  ZZC  60 h131
M  ZZC  61 h132
M  ZZC  62 h141
M  ZZC  63 h142
M  ZZC  64 h151
M  ZZC  65 h152
M  ZZC  66 h161
M  ZZC  67 h162
M  ZZC  68 h171
M  ZZC  69 h51
M  ZZC  70 h191
M  ZZC  71 h221
M  ZZC  72 h231
M  ZZC  73 h241
M  ZZC  74 h251
M  ZZC  75 h261
M  ZZC  76 h262
M  ZZC  77 h271
M  ZZC  78 h272
M  ZZC  79 h281
M  ZZC  80 h282
M  ZZC  81 h291
M  ZZC  82 h292
M  ZZM   1 1
M  ZZI   1 111
M  ZZM   2 3
M  ZZI   2 121
M  ZZM   3 7
M  ZZI   3 81
M  ZZM   4 10
M  ZZI   4 211
M  ZZM   5 1
M  ZZI   5 113
M  ZZM   6 1
M  ZZI   6 112
M  ZZM   7 10
M  ZZI   7 192
M  ZZM   8 3
M  ZZI   8 121
M  ZZM   9 7
M  ZZI   9 81
M  ZZM  10 1
M  ZZI  10 113
M  ZZM  11 10
M  ZZI  11 211
M  ZZM  12 3
M  ZZI  12 121
M  ZZM  13 7
M  ZZI  13 81
M  ZZM  14 1
M  ZZI  14 113
M  ZZM  15 34
M  ZZI  15 231
M  ZZM  16 1
M  ZZI  16 111
M  ZZM  17 1
M  ZZI  17 111
M  ZZM  18 1
M  ZZI  18 113
M  ZZM  19 1
M  ZZI  19 112
M  ZZM  20 1
M  ZZI  20 112
M  ZZM  21 1
M  ZZI  21 112
M  ZZM  22 1
M  ZZI  22 112
M  ZZM  23 1
M  ZZI  23 112
M  ZZM  24 1
M  ZZI  24 113
M  ZZM  25 3
M  ZZI  25 121
M  ZZM  26 7
M  ZZI  26 81
M  ZZM  27 10
M  ZZI  27 211
M  ZZM  28 1
M  ZZI  28 113
M  ZZM  29 37
M  ZZI  29 124
M  ZZM  30 37
M  ZZI  30 124
M  ZZM  31 37
M  ZZI  31 125
M  ZZM  32 37
M  ZZI  32 125
M  ZZM  33 37
M  ZZI  33 125
M  ZZM  34 37
M  ZZI  34 125
M  ZZM  35 1
M  ZZI  35 112
M  ZZM  36 1
M  ZZI  36 112
M  ZZM  37 1
M  ZZI  37 112
M  ZZM  38 1
M  ZZI  38 112
M  ZZM  39 5
M  ZZI  39 1
M  ZZM  40 5
M  ZZI  40 1
M  ZZM  41 5
M  ZZI  41 1
M  ZZM  42 28
M  ZZI  42 11
M  ZZM  43 5
M  ZZI  43 1
M  ZZM  44 5
M  ZZI  44 1
M  ZZM  45 5
M  ZZI  45 1
M  ZZM  46 5
M  ZZI  46 1
M  ZZM  47 28
M  ZZI  47 11
M  ZZM  48 5
M  ZZI  48 1
M  ZZM  49 36
M  ZZI  49 17
M  ZZM  50 36
M  ZZI  50 17
M  ZZM  51 5
M  ZZI  51 1
M  ZZM  52 5
M  ZZI  52 1
M  ZZM  53 5
M  ZZI  53 1
M  ZZM  54 5
M  ZZI  54 1
M  ZZM  55 5
M  ZZI  55 1
M  ZZM  56 5
M  ZZI  56 1
M  ZZM  57 5
M  ZZI  57 1
M  ZZM  58 5
M  ZZI  58 1
M  ZZM  59 5
M  ZZI  59 1
M  ZZM  60 5
M  ZZI  60 1
M  ZZM  61 5
M  ZZI  61 1
M  ZZM  62 5
M  ZZI  62 1
M  ZZM  63 5
M  ZZI  63 1
M  ZZM  64 5
M  ZZI  64 1
M  ZZM  65 5
M  ZZI  65 1
M  ZZM  66 5
M  ZZI  66 1
M  ZZM  67 5
M  ZZI  67 1
M  ZZM  68 5
M  ZZI  68 1
M  ZZM  69 28
M  ZZI  69 11
M  ZZM  70 5
M  ZZI  70 1
M  ZZM  71 5
M  ZZI  71 1
M  ZZM  72 5
M  ZZI  72 1
M  ZZM  73 5
M  ZZI  73 1
M  ZZM  74 5
M  ZZI  74 1
M  ZZM  75 5
M  ZZI  75 1
M  ZZM  76 5
M  ZZI  76 1
M  ZZM  77 5
M  ZZI  77 1
M  ZZM  78 5
M  ZZI  78 1
M  ZZM  79 5
M  ZZI  79 1
M  ZZM  80 5
M  ZZI  80 1
M  ZZM  81 5
M  ZZI  81 1
M  ZZM  82 5
M  ZZI  82 1
M  CHG  1  15   1
M  END
> <IX>
1

> <NAME>
IAPBIR2_3KRR_7.pdb

> <Score>
-15.734082

> <Natom>
82

> <Nflex>
9

> <Hbond>
-2.428925

> <Hphob>
-6.205002

> <VwInt>
-54.789226

> <Dsolv>
16.711327

> <SolEl>
37.436294

> <Eintl>
11.193711

> <RecConf>
ND

> <projPath>
IAPBIR2_maps/

> <NAME_>
IAPBIR2_3KRR_7.pdb

$$$$
