IAPBIR2_2HYY_11.pdb
  MOLSOFT 04032206323D

 48 48  0  0  1  0  0  0  0  0999 V2000
   22.7294   21.2744   16.8020 O   0  0  0  0  0  0  0  0  0  0  0  0
   22.2322   21.7109   15.7724 C   0  0  0  0  0  0  0  0  0  0  0  0
   20.9893   21.3288   15.3029 N   0  0  0  0  0  0  0  0  0  0  0  0
   20.1477   20.4048   16.0693 C   0  0  1  0  0  0  0  0  0  0  0  0
   19.0363   21.2115   16.7430 C   0  0  0  0  0  0  0  0  0  0  0  0
   18.1293   21.7487   16.1244 O   0  0  0  0  0  0  0  0  0  0  0  0
   19.1633   21.3318   18.1033 N   0  0  0  0  0  0  0  0  0  0  0  0
   19.5215   19.3173   15.1962 C   0  0  0  0  0  0  0  0  0  0  0  0
   20.5044   18.5287   14.3194 C   0  0  0  0  0  0  0  0  0  0  0  0
   19.7483   17.5138   13.4655 C   0  0  0  0  0  0  0  0  0  0  0  0
   21.5773   17.8159   15.1381 C   0  0  0  0  0  0  0  0  0  0  0  0
   22.9633   22.7458   14.9266 C   0  0  2  0  0  0  0  0  0  0  0  0
   23.6611   22.1318   13.8333 O   0  0  0  0  0  0  0  0  0  0  0  0
   23.9553   23.5022   15.8339 C   0  0  1  0  0  0  0  0  0  0  0  0
   25.0779   22.5753   16.2182 N   0  3  0  0  0  0  0  0  0  0  0  0
   24.5254   24.7451   15.1415 C   0  0  0  0  0  0  0  0  0  0  0  0
   25.5340   25.5246   15.9509 C   0  0  0  0  0  0  0  0  0  0  0  0
   25.2405   25.9913   17.2288 C   0  0  0  0  0  0  0  0  0  0  0  0
   26.1524   26.7730   17.9178 C   0  0  0  0  0  0  0  0  0  0  0  0
   27.3649   27.1067   17.3474 C   0  0  0  0  0  0  0  0  0  0  0  0
   27.6767   26.6339   16.0882 C   0  0  0  0  0  0  0  0  0  0  0  0
   26.7721   25.8439   15.4001 C   0  0  0  0  0  0  0  0  0  0  0  0
   20.6179   21.7175   14.4406 H   0  0  0  0  0  0  0  0  0  0  0  0
   20.7527   19.9325   16.8495 H   0  0  0  0  0  0  0  0  0  0  0  0
   18.4982   21.8992   18.6183 H   0  0  0  0  0  0  0  0  0  0  0  0
   19.9201   20.9174   18.6355 H   0  0  0  0  0  0  0  0  0  0  0  0
   18.9971   18.6218   15.8537 H   0  0  0  0  0  0  0  0  0  0  0  0
   18.7512   19.7647   14.5605 H   0  0  0  0  0  0  0  0  0  0  0  0
   21.0016   19.2262   13.6428 H   0  0  0  0  0  0  0  0  0  0  0  0
   19.2473   16.7644   14.0855 H   0  0  0  0  0  0  0  0  0  0  0  0
   20.4274   16.9878   12.7880 H   0  0  0  0  0  0  0  0  0  0  0  0
   18.9868   18.0040   12.8513 H   0  0  0  0  0  0  0  0  0  0  0  0
   22.2203   18.5268   15.6632 H   0  0  0  0  0  0  0  0  0  0  0  0
   22.2248   17.2163   14.4911 H   0  0  0  0  0  0  0  0  0  0  0  0
   21.1322   17.1472   15.8818 H   0  0  0  0  0  0  0  0  0  0  0  0
   22.2404   23.4430   14.4951 H   0  0  0  0  0  0  0  0  0  0  0  0
   23.1089   22.2468   13.0367 H   0  0  0  0  0  0  0  0  0  0  0  0
   23.4784   23.7825   16.7746 H   0  0  0  0  0  0  0  0  0  0  0  0
   24.7023   21.7775   16.7566 H   0  0  0  0  0  0  0  0  0  0  0  0
   25.7878   23.0344   16.8043 H   0  0  0  0  0  0  0  0  0  0  0  0
   25.5428   22.1884   15.3847 H   0  0  0  0  0  0  0  0  0  0  0  0
   24.9778   24.4473   14.1896 H   0  0  0  0  0  0  0  0  0  0  0  0
   23.7017   25.4237   14.8939 H   0  0  0  0  0  0  0  0  0  0  0  0
   24.2806   25.7810   17.6898 H   0  0  0  0  0  0  0  0  0  0  0  0
   25.9031   27.1566   18.8994 H   0  0  0  0  0  0  0  0  0  0  0  0
   28.0630   27.7410   17.8842 H   0  0  0  0  0  0  0  0  0  0  0  0
   28.6274   26.8926   15.6331 H   0  0  0  0  0  0  0  0  0  0  0  0
   27.0371   25.4973   14.4053 H   0  0  0  0  0  0  0  0  0  0  0  0
  1  2  2  0  0  0  0
  2  3  1  0  0  0  0
 12  2  1  0  0  0  0
  4  3  1  0  0  0  0
  3 23  1  0  0  0  0
  4  8  1  0  0  0  0
  4 24  1  0  0  0  0
  4  5  1  0  0  0  0
  5  6  2  0  0  0  0
  5  7  1  0  0  0  0
  7 25  1  0  0  0  0
  7 26  1  0  0  0  0
  8 27  1  0  0  0  0
  8 28  1  0  0  0  0
  8  9  1  0  0  0  0
  9 29  1  0  0  0  0
  9 11  1  0  0  0  0
  9 10  1  0  0  0  0
 10 30  1  0  0  0  0
 10 31  1  0  0  0  0
 10 32  1  0  0  0  0
 11 33  1  0  0  0  0
 11 34  1  0  0  0  0
 11 35  1  0  0  0  0
 12 36  1  0  0  0  0
 12 13  1  0  0  0  0
 12 14  1  0  0  0  0
 13 37  1  0  0  0  0
 14 38  1  0  0  0  0
 14 15  1  0  0  0  0
 14 16  1  0  0  0  0
 15 39  1  0  0  0  0
 15 40  1  0  0  0  0
 15 41  1  0  0  0  0
 16 42  1  0  0  0  0
 16 43  1  0  0  0  0
 16 17  1  0  0  0  0
 17 18  1  0  0  0  0
 17 22  2  0  0  0  0
 18 44  1  0  0  0  0
 18 19  2  0  0  0  0
 19 45  1  0  0  0  0
 19 20  1  0  0  0  0
 20 46  1  0  0  0  0
 20 21  2  0  0  0  0
 21 47  1  0  0  0  0
 21 22  1  0  0  0  0
 22 48  1  0  0  0  0
M  ZZC   1 o1
M  ZZC   2 c1
M  ZZC   3 n1
M  ZZC   4 c2
M  ZZC   5 c3
M  ZZC   6 o2
M  ZZC   7 n2
M  ZZC   8 c4
M  ZZC   9 c5
M  ZZC  10 c6
M  ZZC  11 c7
M  ZZC  12 c8
M  ZZC  13 o3
M  ZZC  14 c9
M  ZZC  15 n3
M  ZZC  16 c10
M  ZZC  17 c11
M  ZZC  18 c12
M  ZZC  19 c13
M  ZZC  20 c14
M  ZZC  21 c15
M  ZZC  22 c16
M  ZZC  23 h11
M  ZZC  24 h21
M  ZZC  25 h01
M  ZZC  26 h22
M  ZZC  27 h41
M  ZZC  28 h42
M  ZZC  29 h51
M  ZZC  30 h61
M  ZZC  31 h62
M  ZZC  32 h63
M  ZZC  33 h71
M  ZZC  34 h72
M  ZZC  35 h73
M  ZZC  36 h81
M  ZZC  37 h31
M  ZZC  38 h91
M  ZZC  39 h02
M  ZZC  40 h32
M  ZZC  41 h33
M  ZZC  42 h101
M  ZZC  43 h102
M  ZZC  44 h121
M  ZZC  45 h131
M  ZZC  46 h141
M  ZZC  47 h151
M  ZZC  48 h161
M  ZZM   1 7
M  ZZI   1 81
M  ZZM   2 3
M  ZZI   2 121
M  ZZM   3 10
M  ZZI   3 211
M  ZZM   4 1
M  ZZI   4 113
M  ZZM   5 3
M  ZZI   5 121
M  ZZM   6 7
M  ZZI   6 81
M  ZZM   7 10
M  ZZI   7 212
M  ZZM   8 1
M  ZZI   8 112
M  ZZM   9 1
M  ZZI   9 113
M  ZZM  10 1
M  ZZI  10 111
M  ZZM  11 1
M  ZZI  11 111
M  ZZM  12 1
M  ZZI  12 113
M  ZZM  13 6
M  ZZI  13 60
M  ZZM  14 1
M  ZZI  14 113
M  ZZM  15 34
M  ZZI  15 231
M  ZZM  16 1
M  ZZI  16 112
M  ZZM  17 37
M  ZZI  17 124
M  ZZM  18 37
M  ZZI  18 125
M  ZZM  19 37
M  ZZI  19 125
M  ZZM  20 37
M  ZZI  20 125
M  ZZM  21 37
M  ZZI  21 125
M  ZZM  22 37
M  ZZI  22 125
M  ZZM  23 28
M  ZZI  23 11
M  ZZM  24 5
M  ZZI  24 1
M  ZZM  25 28
M  ZZI  25 11
M  ZZM  26 28
M  ZZI  26 11
M  ZZM  27 5
M  ZZI  27 1
M  ZZM  28 5
M  ZZI  28 1
M  ZZM  29 5
M  ZZI  29 1
M  ZZM  30 5
M  ZZI  30 1
M  ZZM  31 5
M  ZZI  31 1
M  ZZM  32 5
M  ZZI  32 1
M  ZZM  33 5
M  ZZI  33 1
M  ZZM  34 5
M  ZZI  34 1
M  ZZM  35 5
M  ZZI  35 1
M  ZZM  36 5
M  ZZI  36 1
M  ZZM  37 21
M  ZZI  37 20
M  ZZM  38 5
M  ZZI  38 1
M  ZZM  39 36
M  ZZI  39 17
M  ZZM  40 36
M  ZZI  40 17
M  ZZM  41 36
M  ZZI  41 17
M  ZZM  42 5
M  ZZI  42 1
M  ZZM  43 5
M  ZZI  43 1
M  ZZM  44 5
M  ZZI  44 1
M  ZZM  45 5
M  ZZI  45 1
M  ZZM  46 5
M  ZZI  46 1
M  ZZM  47 5
M  ZZI  47 1
M  ZZM  48 5
M  ZZI  48 1
M  CHG  1  15   1
M  END
> <IX>
1

> <NAME>
IAPBIR2_2HYY_11.pdb

> <Score>
-41.479986

> <Natom>
48

> <Nflex>
9

> <Hbond>
-10.918266

> <Hphob>
-3.975831

> <VwInt>
-39.533668

> <Dsolv>
13.415464

> <SolEl>
16.418539

> <Eintl>
3.40478

> <RecConf>
ND

> <projPath>
IAPBIR2_maps/

> <NAME_>
IAPBIR2_2HYY_11.pdb

$$$$
