IAPBIR2_4QNQ_60.pdb
  MOLSOFT 04032206363D

 70 73  0  0  1  0  0  0  0  0999 V2000
   28.2215   28.0618    7.3718 O   0  0  0  0  0  0  0  0  0  0  0  0
   27.4561   27.2558    6.5536 C   0  0  0  0  0  0  0  0  0  0  0  0
   27.1668   25.9768    6.9922 C   0  0  0  0  0  0  0  0  0  0  0  0
   26.3695   25.1458    6.2042 C   0  0  0  0  0  0  0  0  0  0  0  0
   25.9728   23.7537    6.5930 C   0  0  0  0  0  0  0  0  0  0  0  0
   25.7045   22.9706    5.6888 O   0  0  0  0  0  0  0  0  0  0  0  0
   25.8644   23.3543    7.9917 C   0  0  0  0  0  0  0  0  0  0  0  0
   26.2745   24.1548    9.0349 N   0  0  0  0  0  0  0  0  0  0  0  0
   26.0646   23.5777   10.2003 C   0  0  0  0  0  0  0  0  0  0  0  0
   26.4947   24.2082   11.4955 C   0  0  1  0  0  0  0  0  0  0  0  0
   26.1697   23.4191   12.6791 N   0  0  0  0  0  0  0  0  0  0  0  0
   24.9003   23.4646   13.2592 C   0  0  0  0  0  0  0  0  0  0  0  0
   23.9799   24.0653   12.7268 O   0  0  0  0  0  0  0  0  0  0  0  0
   24.7018   22.7779   14.6154 C   0  0  2  0  0  0  0  0  0  0  0  0
   23.2736   22.5237   14.8106 N   0  0  0  0  0  0  0  0  0  0  0  0
   22.7119   21.2728   14.6409 C   0  0  0  0  0  0  0  0  0  0  0  0
   23.3330   20.3155   14.2012 O   0  0  0  0  0  0  0  0  0  0  0  0
   21.2345   21.1721   15.0341 C   0  0  1  0  0  0  0  0  0  0  0  0
   20.6714   19.8029   14.6969 N   0  3  0  0  0  0  0  0  0  0  0  0
   19.2549   19.5384   15.0894 C   0  0  0  0  0  0  0  0  0  0  0  0
   21.0593   21.4430   16.5297 C   0  0  0  0  0  0  0  0  0  0  0  0
   25.2863   23.5918   15.7934 C   0  0  0  0  0  0  0  0  0  0  0  0
   24.6280   24.9613   16.0046 C   0  0  0  0  0  0  0  0  0  0  0  0
   25.2768   25.7015   17.1655 C   0  0  0  0  0  0  0  0  0  0  0  0
   25.2903   24.8915   18.4503 C   0  0  0  0  0  0  0  0  0  0  0  0
   25.8972   23.5145   18.2468 C   0  0  0  0  0  0  0  0  0  0  0  0
   25.2333   22.7771   17.0924 C   0  0  0  0  0  0  0  0  0  0  0  0
   27.3442   22.7242   13.1799 C   0  0  0  0  0  0  0  0  0  0  0  0
   28.4324   23.0013   12.1616 C   0  0  0  0  0  0  0  0  0  0  0  0
   28.0100   24.3304   11.5686 C   0  0  0  0  0  0  0  0  0  0  0  0
   25.3048   22.0350   10.1018 S   0  0  0  0  0  0  0  0  0  0  0  0
   25.3244   22.1475    8.3972 C   0  0  0  0  0  0  0  0  0  0  0  0
   25.9245   25.6168    4.9679 C   0  0  0  0  0  0  0  0  0  0  0  0
   26.2369   26.8980    4.5393 C   0  0  0  0  0  0  0  0  0  0  0  0
   26.9966   27.7321    5.3380 C   0  0  0  0  0  0  0  0  0  0  0  0
   28.0878   28.9843    7.0869 H   0  0  0  0  0  0  0  0  0  0  0  0
   27.5722   25.6599    7.9451 H   0  0  0  0  0  0  0  0  0  0  0  0
   26.0317   25.1949   11.5740 H   0  0  0  0  0  0  0  0  0  0  0  0
   25.2058   21.8079   14.5653 H   0  0  0  0  0  0  0  0  0  0  0  0
   22.6745   23.3283   14.9662 H   0  0  0  0  0  0  0  0  0  0  0  0
   20.6729   21.8979   14.4388 H   0  0  0  0  0  0  0  0  0  0  0  0
   20.7353   19.6750   13.6772 H   0  0  0  0  0  0  0  0  0  0  0  0
   21.2793   19.0716   15.0904 H   0  0  0  0  0  0  0  0  0  0  0  0
   19.2040   19.4474   16.1768 H   0  0  0  0  0  0  0  0  0  0  0  0
   18.9607   18.5988   14.6158 H   0  0  0  0  0  0  0  0  0  0  0  0
   18.6344   20.3606   14.7293 H   0  0  0  0  0  0  0  0  0  0  0  0
   21.4819   20.6338   17.1328 H   0  0  0  0  0  0  0  0  0  0  0  0
   20.0025   21.5497   16.7927 H   0  0  0  0  0  0  0  0  0  0  0  0
   21.5620   22.3622   16.8390 H   0  0  0  0  0  0  0  0  0  0  0  0
   26.3390   23.7924   15.5839 H   0  0  0  0  0  0  0  0  0  0  0  0
   24.7111   25.5762   15.1052 H   0  0  0  0  0  0  0  0  0  0  0  0
   23.5590   24.8572   16.2056 H   0  0  0  0  0  0  0  0  0  0  0  0
   26.2996   25.9850   16.8963 H   0  0  0  0  0  0  0  0  0  0  0  0
   24.7324   26.6218   17.3519 H   0  0  0  0  0  0  0  0  0  0  0  0
   25.8454   25.4326   19.2213 H   0  0  0  0  0  0  0  0  0  0  0  0
   24.2674   24.7845   18.8231 H   0  0  0  0  0  0  0  0  0  0  0  0
   26.9700   23.6144   18.0498 H   0  0  0  0  0  0  0  0  0  0  0  0
   25.7981   22.9304   19.1672 H   0  0  0  0  0  0  0  0  0  0  0  0
   24.1948   22.5554   17.3630 H   0  0  0  0  0  0  0  0  0  0  0  0
   25.7329   21.8128   16.9531 H   0  0  0  0  0  0  0  0  0  0  0  0
   27.6228   23.1402   14.1500 H   0  0  0  0  0  0  0  0  0  0  0  0
   27.1386   21.6561   13.3014 H   0  0  0  0  0  0  0  0  0  0  0  0
   29.4294   23.0322   12.6116 H   0  0  0  0  0  0  0  0  0  0  0  0
   28.4386   22.2242   11.3892 H   0  0  0  0  0  0  0  0  0  0  0  0
   28.4929   24.5370   10.6076 H   0  0  0  0  0  0  0  0  0  0  0  0
   28.2836   25.1350   12.2613 H   0  0  0  0  0  0  0  0  0  0  0  0
   24.9299   21.3454    7.7897 H   0  0  0  0  0  0  0  0  0  0  0  0
   25.3022   24.9971    4.3290 H   0  0  0  0  0  0  0  0  0  0  0  0
   25.8625   27.2571    3.5860 H   0  0  0  0  0  0  0  0  0  0  0  0
   27.2222   28.7412    5.0099 H   0  0  0  0  0  0  0  0  0  0  0  0
  1 36  1  0  0  0  0
  1  2  1  0  0  0  0
  2  3  2  0  0  0  0
  2 35  1  0  0  0  0
  3 37  1  0  0  0  0
  3  4  1  0  0  0  0
  4 33  2  0  0  0  0
  4  5  1  0  0  0  0
  5  6  2  0  0  0  0
  5  7  1  0  0  0  0
  7 32  2  0  0  0  0
  7  8  1  0  0  0  0
  8  9  2  0  0  0  0
  9 31  1  0  0  0  0
 10  9  1  0  0  0  0
 10 38  1  0  0  0  0
 10 30  1  0  0  0  0
 10 11  1  0  0  0  0
 11 28  1  0  0  0  0
 11 12  1  0  0  0  0
 12 13  2  0  0  0  0
 14 12  1  0  0  0  0
 14 39  1  0  0  0  0
 14 15  1  0  0  0  0
 14 22  1  0  0  0  0
 15 40  1  0  0  0  0
 15 16  1  0  0  0  0
 16 17  2  0  0  0  0
 18 16  1  0  0  0  0
 18 41  1  0  0  0  0
 18 21  1  0  0  0  0
 18 19  1  0  0  0  0
 19 42  1  0  0  0  0
 19 43  1  0  0  0  0
 19 20  1  0  0  0  0
 20 44  1  0  0  0  0
 20 45  1  0  0  0  0
 20 46  1  0  0  0  0
 21 47  1  0  0  0  0
 21 48  1  0  0  0  0
 21 49  1  0  0  0  0
 22 50  1  0  0  0  0
 22 23  1  0  0  0  0
 22 27  1  0  0  0  0
 23 51  1  0  0  0  0
 23 52  1  0  0  0  0
 23 24  1  0  0  0  0
 24 53  1  0  0  0  0
 24 54  1  0  0  0  0
 24 25  1  0  0  0  0
 25 55  1  0  0  0  0
 25 56  1  0  0  0  0
 25 26  1  0  0  0  0
 26 57  1  0  0  0  0
 26 58  1  0  0  0  0
 26 27  1  0  0  0  0
 27 59  1  0  0  0  0
 27 60  1  0  0  0  0
 28 29  1  0  0  0  0
 28 61  1  0  0  0  0
 28 62  1  0  0  0  0
 29 30  1  0  0  0  0
 29 63  1  0  0  0  0
 29 64  1  0  0  0  0
 30 65  1  0  0  0  0
 30 66  1  0  0  0  0
 31 32  1  0  0  0  0
 32 67  1  0  0  0  0
 33 68  1  0  0  0  0
 33 34  1  0  0  0  0
 34 69  1  0  0  0  0
 34 35  2  0  0  0  0
 35 70  1  0  0  0  0
M  ZZC   1 o1
M  ZZC   2 c1
M  ZZC   3 c2
M  ZZC   4 c3
M  ZZC   5 c4
M  ZZC   6 o2
M  ZZC   7 c5
M  ZZC   8 n1
M  ZZC   9 c6
M  ZZC  10 c7
M  ZZC  11 n2
M  ZZC  12 c8
M  ZZC  13 o3
M  ZZC  14 c9
M  ZZC  15 n3
M  ZZC  16 c10
M  ZZC  17 o4
M  ZZC  18 c11
M  ZZC  19 n4
M  ZZC  20 c12
M  ZZC  21 c13
M  ZZC  22 c14
M  ZZC  23 c15
M  ZZC  24 c16
M  ZZC  25 c17
M  ZZC  26 c18
M  ZZC  27 c19
M  ZZC  28 c20
M  ZZC  29 c21
M  ZZC  30 c22
M  ZZC  31 s1
M  ZZC  32 c23
M  ZZC  33 c24
M  ZZC  34 c25
M  ZZC  35 c26
M  ZZC  36 h11
M  ZZC  37 h21
M  ZZC  38 h71
M  ZZC  39 h91
M  ZZC  40 h31
M  ZZC  41 h111
M  ZZC  42 h41
M  ZZC  43 h42
M  ZZC  44 h121
M  ZZC  45 h122
M  ZZC  46 h123
M  ZZC  47 h131
M  ZZC  48 h132
M  ZZC  49 h133
M  ZZC  50 h141
M  ZZC  51 h151
M  ZZC  52 h152
M  ZZC  53 h161
M  ZZC  54 h162
M  ZZC  55 h171
M  ZZC  56 h172
M  ZZC  57 h181
M  ZZC  58 h182
M  ZZC  59 h191
M  ZZC  60 h192
M  ZZC  61 h201
M  ZZC  62 h202
M  ZZC  63 h211
M  ZZC  64 h212
M  ZZC  65 h221
M  ZZC  66 h222
M  ZZC  67 h231
M  ZZC  68 h241
M  ZZC  69 h251
M  ZZC  70 h261
M  ZZM   1 6
M  ZZI   1 62
M  ZZM   2 37
M  ZZI   2 124
M  ZZM   3 37
M  ZZI   3 125
M  ZZM   4 37
M  ZZI   4 124
M  ZZM   5 3
M  ZZI   5 122
M  ZZM   6 7
M  ZZI   6 80
M  ZZM   7 64
M  ZZI   7 105
M  ZZM   8 66
M  ZZI   8 222
M  ZZM   9 63
M  ZZI   9 104
M  ZZM  10 1
M  ZZI  10 113
M  ZZM  11 10
M  ZZI  11 192
M  ZZM  12 3
M  ZZI  12 121
M  ZZM  13 7
M  ZZI  13 81
M  ZZM  14 1
M  ZZI  14 113
M  ZZM  15 10
M  ZZI  15 211
M  ZZM  16 3
M  ZZI  16 121
M  ZZM  17 7
M  ZZI  17 81
M  ZZM  18 1
M  ZZI  18 113
M  ZZM  19 34
M  ZZI  19 231
M  ZZM  20 1
M  ZZI  20 111
M  ZZM  21 1
M  ZZI  21 111
M  ZZM  22 1
M  ZZI  22 113
M  ZZM  23 1
M  ZZI  23 112
M  ZZM  24 1
M  ZZI  24 112
M  ZZM  25 1
M  ZZI  25 112
M  ZZM  26 1
M  ZZI  26 112
M  ZZM  27 1
M  ZZI  27 112
M  ZZM  28 1
M  ZZI  28 112
M  ZZM  29 1
M  ZZI  29 112
M  ZZM  30 1
M  ZZI  30 112
M  ZZM  31 44
M  ZZI  31 248
M  ZZM  32 63
M  ZZI  32 104
M  ZZM  33 37
M  ZZI  33 125
M  ZZM  34 37
M  ZZI  34 125
M  ZZM  35 37
M  ZZI  35 125
M  ZZM  36 29
M  ZZI  36 27
M  ZZM  37 5
M  ZZI  37 1
M  ZZM  38 5
M  ZZI  38 1
M  ZZM  39 5
M  ZZI  39 1
M  ZZM  40 28
M  ZZI  40 11
M  ZZM  41 5
M  ZZI  41 1
M  ZZM  42 36
M  ZZI  42 17
M  ZZM  43 36
M  ZZI  43 17
M  ZZM  44 5
M  ZZI  44 1
M  ZZM  45 5
M  ZZI  45 1
M  ZZM  46 5
M  ZZI  46 1
M  ZZM  47 5
M  ZZI  47 1
M  ZZM  48 5
M  ZZI  48 1
M  ZZM  49 5
M  ZZI  49 1
M  ZZM  50 5
M  ZZI  50 1
M  ZZM  51 5
M  ZZI  51 1
M  ZZM  52 5
M  ZZI  52 1
M  ZZM  53 5
M  ZZI  53 1
M  ZZM  54 5
M  ZZI  54 1
M  ZZM  55 5
M  ZZI  55 1
M  ZZM  56 5
M  ZZI  56 1
M  ZZM  57 5
M  ZZI  57 1
M  ZZM  58 5
M  ZZI  58 1
M  ZZM  59 5
M  ZZI  59 1
M  ZZM  60 5
M  ZZI  60 1
M  ZZM  61 5
M  ZZI  61 1
M  ZZM  62 5
M  ZZI  62 1
M  ZZM  63 5
M  ZZI  63 1
M  ZZM  64 5
M  ZZI  64 1
M  ZZM  65 5
M  ZZI  65 1
M  ZZM  66 5
M  ZZI  66 1
M  ZZM  67 5
M  ZZI  67 1
M  ZZM  68 5
M  ZZI  68 1
M  ZZM  69 5
M  ZZI  69 1
M  ZZM  70 5
M  ZZI  70 1
M  CHG  1  19   1
M  END
> <IX>
1

> <NAME>
IAPBIR2_4QNQ_60.pdb

> <Score>
-17.344823

> <Natom>
70

> <Nflex>
7

> <Hbond>
-3.386017

> <Hphob>
-5.203277

> <VwInt>
-51.81029

> <Dsolv>
15.87259

> <SolEl>
38.851808

> <Eintl>
7.952752

> <RecConf>
ND

> <projPath>
IAPBIR2_maps/

> <NAME_>
IAPBIR2_4QNQ_60.pdb

$$$$
