Mdm2_5VBP_19.pdb
  MOLSOFT 04032206393D

 71 74  0  0  1  0  0  0  0  0999 V2000
   28.0585   20.0154   41.0080 Cl  0  0  0  0  0  0  0  0  0  0  0  0
   26.5552   19.1717   41.1417 C   0  0  0  0  0  0  0  0  0  0  0  0
   25.3726   19.8743   41.3121 C   0  0  0  0  0  0  0  0  0  0  0  0
   25.4205   21.2170   41.3587 F   0  0  0  0  0  0  0  0  0  0  0  0
   24.1414   19.2270   41.4198 C   0  0  0  0  0  0  0  0  0  0  0  0
   22.8632   20.0461   41.5954 C   0  0  1  0  0  0  0  0  0  0  0  0
   21.6381   19.5792   40.7989 C   0  0  2  0  0  0  0  0  0  0  0  0
   21.7099   20.0366   39.3437 C   0  0  0  0  0  0  0  0  0  0  0  0
   20.9562   20.8671   38.8565 O   0  0  0  0  0  0  0  0  0  0  0  0
   22.7324   19.4462   38.4628 N   0  5  0  0  0  0  0  0  0  0  0  0
   22.7816   20.0133   37.1048 C   0  0  0  0  0  0  0  0  0  0  0  0
   23.3891   21.2398   36.8187 C   0  0  0  0  0  0  0  0  0  0  0  0
   23.8548   22.0682   37.8391 O   0  0  0  0  0  0  0  0  0  0  0  0
   25.2479   21.8062   38.0571 C   0  0  0  0  0  0  0  0  0  0  0  0
   23.5211   21.6758   35.5074 C   0  0  0  0  0  0  0  0  0  0  0  0
   23.1018   20.8584   34.4596 C   0  0  0  0  0  0  0  0  0  0  0  0
   23.3605   21.3175   33.0581 C   0  0  0  0  0  0  0  0  0  0  0  0
   23.6751   22.4771   32.8380 O   0  0  0  0  0  0  0  0  0  0  0  0
   23.2478   20.3949   32.0505 N   0  0  0  0  0  0  0  0  0  0  0  0
   22.4724   19.6449   34.7466 C   0  0  0  0  0  0  0  0  0  0  0  0
   22.3150   19.2350   36.0614 C   0  0  0  0  0  0  0  0  0  0  0  0
   20.4689   20.1615   41.5012 N   0  0  0  0  0  0  0  0  0  0  0  0
   20.9274   20.7841   42.7536 C   0  0  1  0  0  0  0  0  0  0  0  0
   19.8997   20.6266   43.9022 C   0  0  0  0  0  0  0  0  0  0  0  0
   18.5044   21.2860   43.7509 C   0  0  0  0  0  0  0  0  0  0  0  0
   17.7808   21.1704   45.0991 C   0  0  0  0  0  0  0  0  0  0  0  0
   18.6284   22.7706   43.3993 C   0  0  0  0  0  0  0  0  0  0  0  0
   17.6341   20.5806   42.7003 C   0  0  0  0  0  0  0  0  0  0  0  0
   22.3159   20.1621   43.0375 C   0  0  1  0  0  0  0  0  0  0  0  0
   22.1536   18.7942   43.5903 C   0  0  0  0  0  0  0  0  0  0  0  0
   22.0215   17.7255   44.0269 N   0  0  0  0  0  0  0  0  0  0  0  0
   23.1458   21.0708   43.9633 C   0  0  0  0  0  0  0  0  0  0  0  0
   23.3397   20.7880   45.3232 C   0  0  0  0  0  0  0  0  0  0  0  0
   22.7585   19.7183   45.8847 F   0  0  0  0  0  0  0  0  0  0  0  0
   24.0938   21.5916   46.1577 C   0  0  0  0  0  0  0  0  0  0  0  0
   24.6791   22.7335   45.6535 C   0  0  0  0  0  0  0  0  0  0  0  0
   25.6006   23.7675   46.6843 Cl  0  0  0  0  0  0  0  0  0  0  0  0
   24.4990   23.0602   44.3255 C   0  0  0  0  0  0  0  0  0  0  0  0
   23.7273   22.2582   43.5042 C   0  0  0  0  0  0  0  0  0  0  0  0
   24.1531   17.8315   41.3349 C   0  0  0  0  0  0  0  0  0  0  0  0
   25.3338   17.1267   41.1691 C   0  0  0  0  0  0  0  0  0  0  0  0
   26.5415   17.7912   41.0733 C   0  0  0  0  0  0  0  0  0  0  0  0
   23.0908   21.0437   41.2046 H   0  0  0  0  0  0  0  0  0  0  0  0
   21.5109   18.4922   40.7900 H   0  0  0  0  0  0  0  0  0  0  0  0
   25.6358   22.3755   38.9077 H   0  0  0  0  0  0  0  0  0  0  0  0
   25.7952   22.1116   37.1612 H   0  0  0  0  0  0  0  0  0  0  0  0
   25.4226   20.7363   38.2114 H   0  0  0  0  0  0  0  0  0  0  0  0
   23.9886   22.6367   35.3173 H   0  0  0  0  0  0  0  0  0  0  0  0
   23.4353   20.6913   31.1001 H   0  0  0  0  0  0  0  0  0  0  0  0
   23.0450   19.4135   32.1921 H   0  0  0  0  0  0  0  0  0  0  0  0
   22.1011   18.9911   33.9670 H   0  0  0  0  0  0  0  0  0  0  0  0
   21.8520   18.2791   36.2823 H   0  0  0  0  0  0  0  0  0  0  0  0
   20.0082   20.8618   40.9093 H   0  0  0  0  0  0  0  0  0  0  0  0
   21.0614   21.8537   42.5539 H   0  0  0  0  0  0  0  0  0  0  0  0
   19.7414   19.5627   44.1086 H   0  0  0  0  0  0  0  0  0  0  0  0
   20.3602   21.0282   44.8111 H   0  0  0  0  0  0  0  0  0  0  0  0
   16.7734   21.5919   45.0445 H   0  0  0  0  0  0  0  0  0  0  0  0
   18.3177   21.7034   45.8906 H   0  0  0  0  0  0  0  0  0  0  0  0
   17.6771   20.1264   45.4119 H   0  0  0  0  0  0  0  0  0  0  0  0
   17.6554   23.2645   43.4288 H   0  0  0  0  0  0  0  0  0  0  0  0
   19.0403   22.9263   42.3984 H   0  0  0  0  0  0  0  0  0  0  0  0
   19.2736   23.2874   44.1121 H   0  0  0  0  0  0  0  0  0  0  0  0
   17.9629   20.7901   41.6813 H   0  0  0  0  0  0  0  0  0  0  0  0
   16.5932   20.9111   42.7602 H   0  0  0  0  0  0  0  0  0  0  0  0
   17.6351   19.4952   42.8409 H   0  0  0  0  0  0  0  0  0  0  0  0
   24.2046   21.3227   47.2032 H   0  0  0  0  0  0  0  0  0  0  0  0
   24.9588   23.9518   43.9154 H   0  0  0  0  0  0  0  0  0  0  0  0
   23.5977   22.5888   42.4797 H   0  0  0  0  0  0  0  0  0  0  0  0
   23.2318   17.2611   41.3896 H   0  0  0  0  0  0  0  0  0  0  0  0
   25.3083   16.0431   41.1064 H   0  0  0  0  0  0  0  0  0  0  0  0
   27.4606   17.2291   40.9381 H   0  0  0  0  0  0  0  0  0  0  0  0
  2  1  1  0  0  0  0
  2  3  2  0  0  0  0
  2 42  1  0  0  0  0
  3  4  1  0  0  0  0
  3  5  1  0  0  0  0
  5 40  2  0  0  0  0
  6  5  1  0  0  0  0
  6 43  1  0  0  0  0
  6 29  1  0  0  0  0
  6  7  1  0  0  0  0
  7 22  1  0  0  0  0
  7 44  1  0  0  0  0
  7  8  1  0  0  0  0
  8  9  2  0  0  0  0
  8 10  1  0  0  0  0
 10 11  1  0  0  0  0
 11 21  1  0  0  0  0
 11 12  2  0  0  0  0
 12 15  1  0  0  0  0
 12 13  1  0  0  0  0
 13 14  1  0  0  0  0
 14 45  1  0  0  0  0
 14 46  1  0  0  0  0
 14 47  1  0  0  0  0
 15 16  2  0  0  0  0
 15 48  1  0  0  0  0
 16 20  1  0  0  0  0
 16 17  1  0  0  0  0
 17 18  2  0  0  0  0
 17 19  1  0  0  0  0
 19 49  1  0  0  0  0
 19 50  1  0  0  0  0
 20 21  2  0  0  0  0
 20 51  1  0  0  0  0
 21 52  1  0  0  0  0
 23 22  1  0  0  0  0
 22 53  1  0  0  0  0
 23 29  1  0  0  0  0
 23 54  1  0  0  0  0
 23 24  1  0  0  0  0
 24 55  1  0  0  0  0
 24 56  1  0  0  0  0
 24 25  1  0  0  0  0
 25 26  1  0  0  0  0
 25 27  1  0  0  0  0
 25 28  1  0  0  0  0
 26 57  1  0  0  0  0
 26 58  1  0  0  0  0
 26 59  1  0  0  0  0
 27 60  1  0  0  0  0
 27 61  1  0  0  0  0
 27 62  1  0  0  0  0
 28 63  1  0  0  0  0
 28 64  1  0  0  0  0
 28 65  1  0  0  0  0
 29 30  1  0  0  0  0
 29 32  1  0  0  0  0
 30 31  3  0  0  0  0
 32 33  1  0  0  0  0
 32 39  2  0  0  0  0
 33 34  1  0  0  0  0
 33 35  2  0  0  0  0
 35 66  1  0  0  0  0
 35 36  1  0  0  0  0
 36 37  1  0  0  0  0
 36 38  2  0  0  0  0
 38 67  1  0  0  0  0
 38 39  1  0  0  0  0
 39 68  1  0  0  0  0
 40 69  1  0  0  0  0
 40 41  1  0  0  0  0
 41 70  1  0  0  0  0
 41 42  2  0  0  0  0
 42 71  1  0  0  0  0
M  ZZC   1 &Cl1
M  ZZC   2 c1
M  ZZC   3 c2
M  ZZC   4 f1
M  ZZC   5 c3
M  ZZC   6 c4
M  ZZC   7 c5
M  ZZC   8 c6
M  ZZC   9 o1
M  ZZC  10 n1
M  ZZC  11 c7
M  ZZC  12 c8
M  ZZC  13 o2
M  ZZC  14 c9
M  ZZC  15 c10
M  ZZC  16 c11
M  ZZC  17 c12
M  ZZC  18 o3
M  ZZC  19 n2
M  ZZC  20 c13
M  ZZC  21 c14
M  ZZC  22 n3
M  ZZC  23 c15
M  ZZC  24 c16
M  ZZC  25 c17
M  ZZC  26 c18
M  ZZC  27 c19
M  ZZC  28 c20
M  ZZC  29 c21
M  ZZC  30 c22
M  ZZC  31 n4
M  ZZC  32 c23
M  ZZC  33 c24
M  ZZC  34 f2
M  ZZC  35 c25
M  ZZC  36 c26
M  ZZC  37 &Cl2
M  ZZC  38 c27
M  ZZC  39 c28
M  ZZC  40 c29
M  ZZC  41 c30
M  ZZC  42 c31
M  ZZC  43 h41
M  ZZC  44 h51
M  ZZC  45 h91
M  ZZC  46 h92
M  ZZC  47 h93
M  ZZC  48 h101
M  ZZC  49 h21
M  ZZC  50 h22
M  ZZC  51 h131
M  ZZC  52 h141
M  ZZC  53 h31
M  ZZC  54 h151
M  ZZC  55 h161
M  ZZC  56 h162
M  ZZC  57 h181
M  ZZC  58 h182
M  ZZC  59 h183
M  ZZC  60 h191
M  ZZC  61 h192
M  ZZC  62 h193
M  ZZC  63 h201
M  ZZC  64 h202
M  ZZC  65 h203
M  ZZC  66 h251
M  ZZC  67 h271
M  ZZC  68 h281
M  ZZC  69 h291
M  ZZC  70 h301
M  ZZC  71 h311
M  ZZM   1 12
M  ZZI   1 92
M  ZZM   2 37
M  ZZI   2 124
M  ZZM   3 37
M  ZZI   3 124
M  ZZM   4 11
M  ZZI   4 90
M  ZZM   5 37
M  ZZI   5 124
M  ZZM   6 1
M  ZZI   6 113
M  ZZM   7 1
M  ZZI   7 113
M  ZZM   8 3
M  ZZI   8 122
M  ZZM   9 7
M  ZZI   9 80
M  ZZM  10 76
M  ZZI  10 239
M  ZZM  11 37
M  ZZI  11 124
M  ZZM  12 37
M  ZZI  12 124
M  ZZM  13 6
M  ZZI  13 59
M  ZZM  14 1
M  ZZI  14 111
M  ZZM  15 37
M  ZZI  15 125
M  ZZM  16 37
M  ZZI  16 124
M  ZZM  17 3
M  ZZI  17 121
M  ZZM  18 7
M  ZZI  18 81
M  ZZM  19 10
M  ZZI  19 212
M  ZZM  20 37
M  ZZI  20 125
M  ZZM  21 37
M  ZZI  21 125
M  ZZM  22 8
M  ZZI  22 214
M  ZZM  23 1
M  ZZI  23 113
M  ZZM  24 1
M  ZZI  24 112
M  ZZM  25 1
M  ZZI  25 110
M  ZZM  26 1
M  ZZI  26 111
M  ZZM  27 1
M  ZZI  27 111
M  ZZM  28 1
M  ZZI  28 111
M  ZZM  29 1
M  ZZI  29 110
M  ZZM  30 4
M  ZZI  30 130
M  ZZM  31 42
M  ZZI  31 225
M  ZZM  32 37
M  ZZI  32 124
M  ZZM  33 37
M  ZZI  33 124
M  ZZM  34 11
M  ZZI  34 90
M  ZZM  35 37
M  ZZI  35 125
M  ZZM  36 37
M  ZZI  36 124
M  ZZM  37 12
M  ZZI  37 92
M  ZZM  38 37
M  ZZI  38 125
M  ZZM  39 37
M  ZZI  39 125
M  ZZM  40 37
M  ZZI  40 125
M  ZZM  41 37
M  ZZI  41 125
M  ZZM  42 37
M  ZZI  42 125
M  ZZM  43 5
M  ZZI  43 1
M  ZZM  44 5
M  ZZI  44 1
M  ZZM  45 5
M  ZZI  45 1
M  ZZM  46 5
M  ZZI  46 1
M  ZZM  47 5
M  ZZI  47 1
M  ZZM  48 5
M  ZZI  48 1
M  ZZM  49 28
M  ZZI  49 11
M  ZZM  50 28
M  ZZI  50 11
M  ZZM  51 5
M  ZZI  51 1
M  ZZM  52 5
M  ZZI  52 1
M  ZZM  53 23
M  ZZI  53 10
M  ZZM  54 5
M  ZZI  54 1
M  ZZM  55 5
M  ZZI  55 1
M  ZZM  56 5
M  ZZI  56 1
M  ZZM  57 5
M  ZZI  57 1
M  ZZM  58 5
M  ZZI  58 1
M  ZZM  59 5
M  ZZI  59 1
M  ZZM  60 5
M  ZZI  60 1
M  ZZM  61 5
M  ZZI  61 1
M  ZZM  62 5
M  ZZI  62 1
M  ZZM  63 5
M  ZZI  63 1
M  ZZM  64 5
M  ZZI  64 1
M  ZZM  65 5
M  ZZI  65 1
M  ZZM  66 5
M  ZZI  66 1
M  ZZM  67 5
M  ZZI  67 1
M  ZZM  68 5
M  ZZI  68 1
M  ZZM  69 5
M  ZZI  69 1
M  ZZM  70 5
M  ZZI  70 1
M  ZZM  71 5
M  ZZI  71 1
M  CHG  1  10  -1
M  END
> <IX>
1

> <NAME>
Mdm2_5VBP_19.pdb

> <Score>
-16.048847

> <Natom>
71

> <Nflex>
5

> <Hbond>
-2.842087

> <Hphob>
-5.140681

> <VwInt>
-27.430315

> <Dsolv>
15.233396

> <SolEl>
8.462168

> <Eintl>
3.343545

> <RecConf>
ND

> <projPath>
Mdm2_maps/

> <NAME_>
Mdm2_5VBP_19.pdb

$$$$
