Mdm2_5T8E_23.pdb
  MOLSOFT 04032206393D

 70 74  0  0  1  0  0  0  0  0999 V2000
    5.3481    8.7519   37.0893 Cl  0  0  0  0  0  0  0  0  0  0  0  0
    5.0916   10.3537   37.6835 C   0  0  0  0  0  0  0  0  0  0  0  0
    3.8096   10.7850   37.9780 C   0  0  0  0  0  0  0  0  0  0  0  0
    3.6011   12.0805   38.4215 C   0  0  0  0  0  0  0  0  0  0  0  0
    4.6729   12.9624   38.5681 C   0  0  0  0  0  0  0  0  0  0  0  0
    4.4920   14.4239   38.9386 C   0  0  2  0  0  0  0  0  0  0  0  0
    3.4892   14.7543   39.9215 N   0  0  0  0  0  0  0  0  0  0  0  0
    3.3912   14.0570   41.1154 C   0  0  0  0  0  0  0  0  0  0  0  0
    4.3735   13.5526   41.6381 O   0  0  0  0  0  0  0  0  0  0  0  0
    2.1275   13.9665   41.6919 N   0  0  0  0  0  0  0  0  0  0  0  0
    0.8613   14.1712   40.9794 C   0  0  0  0  0  0  0  0  0  0  0  0
   -0.2078   14.8567   41.8243 C   0  0  0  0  0  0  0  0  0  0  0  0
   -1.2149   15.3281   41.3193 O   0  0  0  0  0  0  0  0  0  0  0  0
   -0.0535   14.8160   43.1961 N   0  0  0  0  0  0  0  0  0  0  0  0
    1.1524   14.3808   43.8754 C   0  0  0  0  0  0  0  0  0  0  0  0
    1.9870   13.4279   43.0355 C   0  0  0  0  0  0  0  0  0  0  0  0
    3.1521   16.0797   39.6553 C   0  0  0  0  0  0  0  0  0  0  0  0
    2.4900   16.9899   40.6468 C   0  0  0  0  0  0  0  0  0  0  0  0
    1.4630   17.8532   40.2454 C   0  0  0  0  0  0  0  0  0  0  0  0
    1.0187   17.7384   38.9186 O   0  0  0  0  0  0  0  0  0  0  0  0
    0.1244   18.7485   38.4106 C   0  0  0  0  0  0  0  0  0  0  0  0
   -0.4470   18.2195   37.1026 C   0  0  0  0  0  0  0  0  0  0  0  0
    0.8772   20.0483   38.1483 C   0  0  0  0  0  0  0  0  0  0  0  0
    0.9160   18.7497   41.1685 C   0  0  0  0  0  0  0  0  0  0  0  0
    1.4082   18.8011   42.4691 C   0  0  0  0  0  0  0  0  0  0  0  0
    0.9619   19.6870   43.4567 O   0  0  0  0  0  0  0  0  0  0  0  0
    0.2875   20.8466   42.9476 C   0  0  0  0  0  0  0  0  0  0  0  0
    2.4063   17.9317   42.8588 C   0  0  0  0  0  0  0  0  0  0  0  0
    2.9618   17.0465   41.9540 C   0  0  0  0  0  0  0  0  0  0  0  0
    3.5063   16.5158   38.4851 N   0  0  0  0  0  0  0  0  0  0  0  0
    4.1405   15.3768   37.7908 C   0  0  2  0  0  0  0  0  0  0  0  0
    3.2654   14.8350   36.6634 C   0  0  0  0  0  0  0  0  0  0  0  0
    3.7602   13.9649   35.6915 C   0  0  0  0  0  0  0  0  0  0  0  0
    2.9375   13.4271   34.7168 C   0  0  0  0  0  0  0  0  0  0  0  0
    1.5980   13.7651   34.6825 C   0  0  0  0  0  0  0  0  0  0  0  0
    0.5618   13.0798   33.4836 Cl  0  0  0  0  0  0  0  0  0  0  0  0
    1.0855   14.6480   35.6118 C   0  0  0  0  0  0  0  0  0  0  0  0
    1.9127   15.1668   36.5912 C   0  0  0  0  0  0  0  0  0  0  0  0
    5.9582   12.4959   38.2963 C   0  0  0  0  0  0  0  0  0  0  0  0
    6.1695   11.2027   37.8532 C   0  0  0  0  0  0  0  0  0  0  0  0
    2.9617   10.1199   37.8470 H   0  0  0  0  0  0  0  0  0  0  0  0
    2.5850   12.4091   38.6191 H   0  0  0  0  0  0  0  0  0  0  0  0
    5.4361   14.7660   39.3849 H   0  0  0  0  0  0  0  0  0  0  0  0
    0.9958   14.7137   40.0426 H   0  0  0  0  0  0  0  0  0  0  0  0
    0.4834   13.1778   40.7151 H   0  0  0  0  0  0  0  0  0  0  0  0
   -0.7897   15.2530   43.7392 H   0  0  0  0  0  0  0  0  0  0  0  0
    1.7241   15.2822   44.1140 H   0  0  0  0  0  0  0  0  0  0  0  0
    0.8602   13.9146   44.8209 H   0  0  0  0  0  0  0  0  0  0  0  0
    1.4954   12.4523   42.9500 H   0  0  0  0  0  0  0  0  0  0  0  0
    2.9615   13.2678   43.5070 H   0  0  0  0  0  0  0  0  0  0  0  0
   -0.7215   18.9047   39.0866 H   0  0  0  0  0  0  0  0  0  0  0  0
    0.3399   18.0567   36.3599 H   0  0  0  0  0  0  0  0  0  0  0  0
   -1.1726   18.9251   36.6872 H   0  0  0  0  0  0  0  0  0  0  0  0
   -0.9772   17.2745   37.2528 H   0  0  0  0  0  0  0  0  0  0  0  0
    1.1282   20.5482   39.0834 H   0  0  0  0  0  0  0  0  0  0  0  0
    0.2781   20.7288   37.5446 H   0  0  0  0  0  0  0  0  0  0  0  0
    1.8049   19.8813   37.5959 H   0  0  0  0  0  0  0  0  0  0  0  0
    0.1044   19.4048   40.8876 H   0  0  0  0  0  0  0  0  0  0  0  0
    0.1409   21.6018   43.7270 H   0  0  0  0  0  0  0  0  0  0  0  0
   -0.7012   20.5356   42.5997 H   0  0  0  0  0  0  0  0  0  0  0  0
    0.8268   21.2648   42.0915 H   0  0  0  0  0  0  0  0  0  0  0  0
    2.7814   17.9682   43.8762 H   0  0  0  0  0  0  0  0  0  0  0  0
    3.7868   16.4244   42.2793 H   0  0  0  0  0  0  0  0  0  0  0  0
    5.0715   15.7320   37.3343 H   0  0  0  0  0  0  0  0  0  0  0  0
    4.8037   13.6748   35.6931 H   0  0  0  0  0  0  0  0  0  0  0  0
    3.3502   12.7350   33.9895 H   0  0  0  0  0  0  0  0  0  0  0  0
    0.0358   14.9267   35.5942 H   0  0  0  0  0  0  0  0  0  0  0  0
    1.4761   15.8417   37.3157 H   0  0  0  0  0  0  0  0  0  0  0  0
    6.8145   13.1549   38.4083 H   0  0  0  0  0  0  0  0  0  0  0  0
    7.1774   10.8688   37.6255 H   0  0  0  0  0  0  0  0  0  0  0  0
  2  1  1  0  0  0  0
  2  3  1  0  0  0  0
  2 40  2  0  0  0  0
  3 41  1  0  0  0  0
  3  4  2  0  0  0  0
  4 42  1  0  0  0  0
  4  5  1  0  0  0  0
  5 39  2  0  0  0  0
  6  5  1  0  0  0  0
  6 43  1  0  0  0  0
  6 31  1  0  0  0  0
  6  7  1  0  0  0  0
  7 17  1  0  0  0  0
  7  8  1  0  0  0  0
  8  9  2  0  0  0  0
  8 10  1  0  0  0  0
 10 16  1  0  0  0  0
 10 11  1  0  0  0  0
 11 12  1  0  0  0  0
 11 44  1  0  0  0  0
 11 45  1  0  0  0  0
 12 14  1  0  0  0  0
 12 13  2  0  0  0  0
 14 15  1  0  0  0  0
 14 46  1  0  0  0  0
 15 16  1  0  0  0  0
 15 47  1  0  0  0  0
 15 48  1  0  0  0  0
 16 49  1  0  0  0  0
 16 50  1  0  0  0  0
 17 30  2  0  0  0  0
 17 18  1  0  0  0  0
 18 19  1  0  0  0  0
 18 29  2  0  0  0  0
 19 20  1  0  0  0  0
 19 24  2  0  0  0  0
 20 21  1  0  0  0  0
 21 51  1  0  0  0  0
 21 23  1  0  0  0  0
 21 22  1  0  0  0  0
 22 52  1  0  0  0  0
 22 53  1  0  0  0  0
 22 54  1  0  0  0  0
 23 55  1  0  0  0  0
 23 56  1  0  0  0  0
 23 57  1  0  0  0  0
 24 58  1  0  0  0  0
 24 25  1  0  0  0  0
 25 28  2  0  0  0  0
 25 26  1  0  0  0  0
 26 27  1  0  0  0  0
 27 59  1  0  0  0  0
 27 60  1  0  0  0  0
 27 61  1  0  0  0  0
 28 62  1  0  0  0  0
 28 29  1  0  0  0  0
 29 63  1  0  0  0  0
 31 30  1  0  0  0  0
 31 64  1  0  0  0  0
 31 32  1  0  0  0  0
 32 33  1  0  0  0  0
 32 38  2  0  0  0  0
 33 65  1  0  0  0  0
 33 34  2  0  0  0  0
 34 66  1  0  0  0  0
 34 35  1  0  0  0  0
 35 36  1  0  0  0  0
 35 37  2  0  0  0  0
 37 67  1  0  0  0  0
 37 38  1  0  0  0  0
 38 68  1  0  0  0  0
 39 69  1  0  0  0  0
 39 40  1  0  0  0  0
 40 70  1  0  0  0  0
M  ZZC   1 &Cl1
M  ZZC   2 c1
M  ZZC   3 c2
M  ZZC   4 c3
M  ZZC   5 c4
M  ZZC   6 c5
M  ZZC   7 n1
M  ZZC   8 c6
M  ZZC   9 o1
M  ZZC  10 n2
M  ZZC  11 c7
M  ZZC  12 c8
M  ZZC  13 o2
M  ZZC  14 n3
M  ZZC  15 c9
M  ZZC  16 c10
M  ZZC  17 c11
M  ZZC  18 c12
M  ZZC  19 c13
M  ZZC  20 o3
M  ZZC  21 c14
M  ZZC  22 c15
M  ZZC  23 c16
M  ZZC  24 c17
M  ZZC  25 c18
M  ZZC  26 o4
M  ZZC  27 c19
M  ZZC  28 c20
M  ZZC  29 c21
M  ZZC  30 n4
M  ZZC  31 c22
M  ZZC  32 c23
M  ZZC  33 c24
M  ZZC  34 c25
M  ZZC  35 c26
M  ZZC  36 &Cl2
M  ZZC  37 c27
M  ZZC  38 c28
M  ZZC  39 c29
M  ZZC  40 c30
M  ZZC  41 h21
M  ZZC  42 h31
M  ZZC  43 h51
M  ZZC  44 h71
M  ZZC  45 h72
M  ZZC  46 h01
M  ZZC  47 h91
M  ZZC  48 h92
M  ZZC  49 h101
M  ZZC  50 h102
M  ZZC  51 h141
M  ZZC  52 h151
M  ZZC  53 h152
M  ZZC  54 h153
M  ZZC  55 h161
M  ZZC  56 h162
M  ZZC  57 h163
M  ZZC  58 h171
M  ZZC  59 h191
M  ZZC  60 h192
M  ZZC  61 h193
M  ZZC  62 h201
M  ZZC  63 h211
M  ZZC  64 h221
M  ZZC  65 h241
M  ZZC  66 h251
M  ZZC  67 h271
M  ZZC  68 h281
M  ZZC  69 h291
M  ZZC  70 h301
M  ZZM   1 12
M  ZZI   1 92
M  ZZM   2 37
M  ZZI   2 124
M  ZZM   3 37
M  ZZI   3 125
M  ZZM   4 37
M  ZZI   4 125
M  ZZM   5 37
M  ZZI   5 124
M  ZZM   6 1
M  ZZI   6 113
M  ZZM   7 10
M  ZZI   7 192
M  ZZM   8 3
M  ZZI   8 121
M  ZZM   9 7
M  ZZI   9 81
M  ZZM  10 10
M  ZZI  10 192
M  ZZM  11 1
M  ZZI  11 112
M  ZZM  12 3
M  ZZI  12 121
M  ZZM  13 7
M  ZZI  13 81
M  ZZM  14 10
M  ZZI  14 211
M  ZZM  15 1
M  ZZI  15 112
M  ZZM  16 1
M  ZZI  16 112
M  ZZM  17 3
M  ZZI  17 121
M  ZZM  18 37
M  ZZI  18 124
M  ZZM  19 37
M  ZZI  19 124
M  ZZM  20 6
M  ZZI  20 59
M  ZZM  21 1
M  ZZI  21 113
M  ZZM  22 1
M  ZZI  22 111
M  ZZM  23 1
M  ZZI  23 111
M  ZZM  24 37
M  ZZI  24 125
M  ZZM  25 37
M  ZZI  25 124
M  ZZM  26 6
M  ZZI  26 59
M  ZZM  27 1
M  ZZI  27 111
M  ZZM  28 37
M  ZZI  28 125
M  ZZM  29 37
M  ZZI  29 125
M  ZZM  30 9
M  ZZI  30 220
M  ZZM  31 1
M  ZZI  31 113
M  ZZM  32 37
M  ZZI  32 124
M  ZZM  33 37
M  ZZI  33 125
M  ZZM  34 37
M  ZZI  34 125
M  ZZM  35 37
M  ZZI  35 124
M  ZZM  36 12
M  ZZI  36 92
M  ZZM  37 37
M  ZZI  37 125
M  ZZM  38 37
M  ZZI  38 125
M  ZZM  39 37
M  ZZI  39 125
M  ZZM  40 37
M  ZZI  40 125
M  ZZM  41 5
M  ZZI  41 1
M  ZZM  42 5
M  ZZI  42 1
M  ZZM  43 5
M  ZZI  43 1
M  ZZM  44 5
M  ZZI  44 1
M  ZZM  45 5
M  ZZI  45 1
M  ZZM  46 28
M  ZZI  46 11
M  ZZM  47 5
M  ZZI  47 1
M  ZZM  48 5
M  ZZI  48 1
M  ZZM  49 5
M  ZZI  49 1
M  ZZM  50 5
M  ZZI  50 1
M  ZZM  51 5
M  ZZI  51 1
M  ZZM  52 5
M  ZZI  52 1
M  ZZM  53 5
M  ZZI  53 1
M  ZZM  54 5
M  ZZI  54 1
M  ZZM  55 5
M  ZZI  55 1
M  ZZM  56 5
M  ZZI  56 1
M  ZZM  57 5
M  ZZI  57 1
M  ZZM  58 5
M  ZZI  58 1
M  ZZM  59 5
M  ZZI  59 1
M  ZZM  60 5
M  ZZI  60 1
M  ZZM  61 5
M  ZZI  61 1
M  ZZM  62 5
M  ZZI  62 1
M  ZZM  63 5
M  ZZI  63 1
M  ZZM  64 5
M  ZZI  64 1
M  ZZM  65 5
M  ZZI  65 1
M  ZZM  66 5
M  ZZI  66 1
M  ZZM  67 5
M  ZZI  67 1
M  ZZM  68 5
M  ZZI  68 1
M  ZZM  69 5
M  ZZI  69 1
M  ZZM  70 5
M  ZZI  70 1
M  END
> <IX>
1

> <NAME>
Mdm2_5T8E_23.pdb

> <Score>
-10.17588

> <Natom>
70

> <Nflex>
5

> <Hbond>
0.

> <Hphob>
-6.394625

> <VwInt>
-26.588706

> <Dsolv>
11.734338

> <SolEl>
6.848743

> <Eintl>
7.293836

> <RecConf>
ND

> <projPath>
Mdm2_maps/

> <NAME_>
Mdm2_5T8E_23.pdb

$$$$
