Mdm2_5GMP_4.pdb
  MOLSOFT 04032206373D

 71 74  0  0  1  0  0  0  0  0999 V2000
   19.6432   13.9049   37.0787 Cl  0  0  0  0  0  0  0  0  0  0  0  0
   20.8031   14.7434   38.0505 C   0  0  0  0  0  0  0  0  0  0  0  0
   20.4792   15.9524   38.6497 C   0  0  0  0  0  0  0  0  0  0  0  0
   19.2532   16.4607   38.4458 F   0  0  0  0  0  0  0  0  0  0  0  0
   21.3842   16.6237   39.4798 C   0  0  0  0  0  0  0  0  0  0  0  0
   21.0810   17.9318   40.2092 C   0  0  1  0  0  0  0  0  0  0  0  0
   20.3069   18.9907   39.4210 C   0  0  2  0  0  0  0  0  0  0  0  0
   21.2244   19.6497   38.3883 C   0  0  0  0  0  0  0  0  0  0  0  0
   22.1268   20.4308   38.6657 O   0  0  0  0  0  0  0  0  0  0  0  0
   21.0532   19.2927   36.9625 N   0  5  0  0  0  0  0  0  0  0  0  0
   22.0762   19.8618   36.0613 C   0  0  0  0  0  0  0  0  0  0  0  0
   23.1678   19.1304   35.5707 C   0  0  0  0  0  0  0  0  0  0  0  0
   23.3993   17.7890   35.8843 O   0  0  0  0  0  0  0  0  0  0  0  0
   22.3791   16.9730   35.2908 C   0  0  0  0  0  0  0  0  0  0  0  0
   24.1097   19.7355   34.7461 C   0  0  0  0  0  0  0  0  0  0  0  0
   23.9561   21.0715   34.3718 C   0  0  0  0  0  0  0  0  0  0  0  0
   24.8983   21.7754   33.4509 C   0  0  0  0  0  0  0  0  0  0  0  0
   24.5507   22.7935   32.8717 O   0  0  0  0  0  0  0  0  0  0  0  0
   26.1491   21.2427   33.2888 N   0  0  0  0  0  0  0  0  0  0  0  0
   22.8574   21.7842   34.8356 C   0  0  0  0  0  0  0  0  0  0  0  0
   21.9254   21.1711   35.6484 C   0  0  0  0  0  0  0  0  0  0  0  0
   19.8390   19.9563   40.4407 N   0  0  0  0  0  0  0  0  0  0  0  0
   19.9414   19.3302   41.7719 C   0  0  1  0  0  0  0  0  0  0  0  0
   18.7421   19.6234   42.7137 C   0  0  0  0  0  0  0  0  0  0  0  0
   18.8392   20.8632   43.6432 C   0  0  0  0  0  0  0  0  0  0  0  0
   19.1314   22.1578   42.8764 C   0  0  0  0  0  0  0  0  0  0  0  0
   17.4917   21.0259   44.3618 C   0  0  0  0  0  0  0  0  0  0  0  0
   19.9262   20.6614   44.7087 C   0  0  0  0  0  0  0  0  0  0  0  0
   20.3284   17.8391   41.5564 C   0  0  2  0  0  0  0  0  0  0  0  0
   21.2844   17.5184   42.6373 C   0  0  0  0  0  0  0  0  0  0  0  0
   22.0615   17.3192   43.4767 N   0  0  0  0  0  0  0  0  0  0  0  0
   19.1876   16.8007   41.4984 C   0  0  0  0  0  0  0  0  0  0  0  0
   19.3964   15.4637   41.8706 C   0  0  0  0  0  0  0  0  0  0  0  0
   20.5958   15.0670   42.3215 F   0  0  0  0  0  0  0  0  0  0  0  0
   18.4280   14.4868   41.7482 C   0  0  0  0  0  0  0  0  0  0  0  0
   17.1946   14.8183   41.2329 C   0  0  0  0  0  0  0  0  0  0  0  0
   15.9816   13.6060   41.0255 Cl  0  0  0  0  0  0  0  0  0  0  0  0
   16.9372   16.1227   40.8679 C   0  0  0  0  0  0  0  0  0  0  0  0
   17.9168   17.0944   40.9940 C   0  0  0  0  0  0  0  0  0  0  0  0
   22.6360   16.0340   39.6565 C   0  0  0  0  0  0  0  0  0  0  0  0
   22.9682   14.8382   39.0429 C   0  0  0  0  0  0  0  0  0  0  0  0
   22.0530   14.1844   38.2406 C   0  0  0  0  0  0  0  0  0  0  0  0
   22.0656   18.3760   40.4143 H   0  0  0  0  0  0  0  0  0  0  0  0
   19.4322   18.5901   38.9018 H   0  0  0  0  0  0  0  0  0  0  0  0
   21.4822   16.9495   35.9132 H   0  0  0  0  0  0  0  0  0  0  0  0
   22.7612   15.9513   35.2198 H   0  0  0  0  0  0  0  0  0  0  0  0
   22.1326   17.3110   34.2783 H   0  0  0  0  0  0  0  0  0  0  0  0
   24.9343   19.1337   34.3819 H   0  0  0  0  0  0  0  0  0  0  0  0
   26.7870   21.7029   32.6492 H   0  0  0  0  0  0  0  0  0  0  0  0
   26.4971   20.4375   33.7943 H   0  0  0  0  0  0  0  0  0  0  0  0
   22.7134   22.8266   34.5753 H   0  0  0  0  0  0  0  0  0  0  0  0
   21.0620   21.7251   35.9735 H   0  0  0  0  0  0  0  0  0  0  0  0
   18.9029   20.2976   40.2222 H   0  0  0  0  0  0  0  0  0  0  0  0
   20.8149   19.8192   42.2151 H   0  0  0  0  0  0  0  0  0  0  0  0
   17.8319   19.7250   42.1141 H   0  0  0  0  0  0  0  0  0  0  0  0
   18.5679   18.7506   43.3520 H   0  0  0  0  0  0  0  0  0  0  0  0
   20.1101   22.1379   42.3889 H   0  0  0  0  0  0  0  0  0  0  0  0
   19.1242   23.0253   43.5444 H   0  0  0  0  0  0  0  0  0  0  0  0
   18.3752   22.3363   42.1097 H   0  0  0  0  0  0  0  0  0  0  0  0
   17.5005   21.8917   45.0306 H   0  0  0  0  0  0  0  0  0  0  0  0
   17.2510   20.1468   44.9681 H   0  0  0  0  0  0  0  0  0  0  0  0
   16.6702   21.1712   43.6529 H   0  0  0  0  0  0  0  0  0  0  0  0
   19.9139   21.4722   45.4438 H   0  0  0  0  0  0  0  0  0  0  0  0
   20.9298   20.6365   44.2749 H   0  0  0  0  0  0  0  0  0  0  0  0
   19.7795   19.7262   45.2581 H   0  0  0  0  0  0  0  0  0  0  0  0
   18.6568   13.4665   42.0378 H   0  0  0  0  0  0  0  0  0  0  0  0
   15.9671   16.3835   40.4624 H   0  0  0  0  0  0  0  0  0  0  0  0
   17.6794   18.0917   40.6461 H   0  0  0  0  0  0  0  0  0  0  0  0
   23.3810   16.5115   40.2867 H   0  0  0  0  0  0  0  0  0  0  0  0
   23.9530   14.4084   39.1988 H   0  0  0  0  0  0  0  0  0  0  0  0
   22.3191   13.2415   37.7724 H   0  0  0  0  0  0  0  0  0  0  0  0
  2  1  1  0  0  0  0
  2  3  2  0  0  0  0
  2 42  1  0  0  0  0
  3  4  1  0  0  0  0
  3  5  1  0  0  0  0
  5 40  2  0  0  0  0
  6  5  1  0  0  0  0
  6 43  1  0  0  0  0
  6 29  1  0  0  0  0
  6  7  1  0  0  0  0
  7 22  1  0  0  0  0
  7 44  1  0  0  0  0
  7  8  1  0  0  0  0
  8  9  2  0  0  0  0
  8 10  1  0  0  0  0
 10 11  1  0  0  0  0
 11 21  1  0  0  0  0
 11 12  2  0  0  0  0
 12 15  1  0  0  0  0
 12 13  1  0  0  0  0
 13 14  1  0  0  0  0
 14 45  1  0  0  0  0
 14 46  1  0  0  0  0
 14 47  1  0  0  0  0
 15 16  2  0  0  0  0
 15 48  1  0  0  0  0
 16 20  1  0  0  0  0
 16 17  1  0  0  0  0
 17 18  2  0  0  0  0
 17 19  1  0  0  0  0
 19 49  1  0  0  0  0
 19 50  1  0  0  0  0
 20 21  2  0  0  0  0
 20 51  1  0  0  0  0
 21 52  1  0  0  0  0
 23 22  1  0  0  0  0
 22 53  1  0  0  0  0
 23 29  1  0  0  0  0
 23 54  1  0  0  0  0
 23 24  1  0  0  0  0
 24 55  1  0  0  0  0
 24 56  1  0  0  0  0
 24 25  1  0  0  0  0
 25 26  1  0  0  0  0
 25 27  1  0  0  0  0
 25 28  1  0  0  0  0
 26 57  1  0  0  0  0
 26 58  1  0  0  0  0
 26 59  1  0  0  0  0
 27 60  1  0  0  0  0
 27 61  1  0  0  0  0
 27 62  1  0  0  0  0
 28 63  1  0  0  0  0
 28 64  1  0  0  0  0
 28 65  1  0  0  0  0
 29 30  1  0  0  0  0
 29 32  1  0  0  0  0
 30 31  3  0  0  0  0
 32 33  1  0  0  0  0
 32 39  2  0  0  0  0
 33 34  1  0  0  0  0
 33 35  2  0  0  0  0
 35 66  1  0  0  0  0
 35 36  1  0  0  0  0
 36 37  1  0  0  0  0
 36 38  2  0  0  0  0
 38 67  1  0  0  0  0
 38 39  1  0  0  0  0
 39 68  1  0  0  0  0
 40 69  1  0  0  0  0
 40 41  1  0  0  0  0
 41 70  1  0  0  0  0
 41 42  2  0  0  0  0
 42 71  1  0  0  0  0
M  ZZC   1 &Cl1
M  ZZC   2 c1
M  ZZC   3 c2
M  ZZC   4 f1
M  ZZC   5 c3
M  ZZC   6 c4
M  ZZC   7 c5
M  ZZC   8 c6
M  ZZC   9 o1
M  ZZC  10 n1
M  ZZC  11 c7
M  ZZC  12 c8
M  ZZC  13 o2
M  ZZC  14 c9
M  ZZC  15 c10
M  ZZC  16 c11
M  ZZC  17 c12
M  ZZC  18 o3
M  ZZC  19 n2
M  ZZC  20 c13
M  ZZC  21 c14
M  ZZC  22 n3
M  ZZC  23 c15
M  ZZC  24 c16
M  ZZC  25 c17
M  ZZC  26 c18
M  ZZC  27 c19
M  ZZC  28 c20
M  ZZC  29 c21
M  ZZC  30 c22
M  ZZC  31 n4
M  ZZC  32 c23
M  ZZC  33 c24
M  ZZC  34 f2
M  ZZC  35 c25
M  ZZC  36 c26
M  ZZC  37 &Cl2
M  ZZC  38 c27
M  ZZC  39 c28
M  ZZC  40 c29
M  ZZC  41 c30
M  ZZC  42 c31
M  ZZC  43 h41
M  ZZC  44 h51
M  ZZC  45 h91
M  ZZC  46 h92
M  ZZC  47 h93
M  ZZC  48 h101
M  ZZC  49 h21
M  ZZC  50 h22
M  ZZC  51 h131
M  ZZC  52 h141
M  ZZC  53 h31
M  ZZC  54 h151
M  ZZC  55 h161
M  ZZC  56 h162
M  ZZC  57 h181
M  ZZC  58 h182
M  ZZC  59 h183
M  ZZC  60 h191
M  ZZC  61 h192
M  ZZC  62 h193
M  ZZC  63 h201
M  ZZC  64 h202
M  ZZC  65 h203
M  ZZC  66 h251
M  ZZC  67 h271
M  ZZC  68 h281
M  ZZC  69 h291
M  ZZC  70 h301
M  ZZC  71 h311
M  ZZM   1 12
M  ZZI   1 92
M  ZZM   2 37
M  ZZI   2 124
M  ZZM   3 37
M  ZZI   3 124
M  ZZM   4 11
M  ZZI   4 90
M  ZZM   5 37
M  ZZI   5 124
M  ZZM   6 1
M  ZZI   6 113
M  ZZM   7 1
M  ZZI   7 113
M  ZZM   8 3
M  ZZI   8 122
M  ZZM   9 7
M  ZZI   9 80
M  ZZM  10 76
M  ZZI  10 239
M  ZZM  11 37
M  ZZI  11 124
M  ZZM  12 37
M  ZZI  12 124
M  ZZM  13 6
M  ZZI  13 59
M  ZZM  14 1
M  ZZI  14 111
M  ZZM  15 37
M  ZZI  15 125
M  ZZM  16 37
M  ZZI  16 124
M  ZZM  17 3
M  ZZI  17 121
M  ZZM  18 7
M  ZZI  18 81
M  ZZM  19 10
M  ZZI  19 212
M  ZZM  20 37
M  ZZI  20 125
M  ZZM  21 37
M  ZZI  21 125
M  ZZM  22 8
M  ZZI  22 214
M  ZZM  23 1
M  ZZI  23 113
M  ZZM  24 1
M  ZZI  24 112
M  ZZM  25 1
M  ZZI  25 110
M  ZZM  26 1
M  ZZI  26 111
M  ZZM  27 1
M  ZZI  27 111
M  ZZM  28 1
M  ZZI  28 111
M  ZZM  29 1
M  ZZI  29 110
M  ZZM  30 4
M  ZZI  30 130
M  ZZM  31 42
M  ZZI  31 225
M  ZZM  32 37
M  ZZI  32 124
M  ZZM  33 37
M  ZZI  33 124
M  ZZM  34 11
M  ZZI  34 90
M  ZZM  35 37
M  ZZI  35 125
M  ZZM  36 37
M  ZZI  36 124
M  ZZM  37 12
M  ZZI  37 92
M  ZZM  38 37
M  ZZI  38 125
M  ZZM  39 37
M  ZZI  39 125
M  ZZM  40 37
M  ZZI  40 125
M  ZZM  41 37
M  ZZI  41 125
M  ZZM  42 37
M  ZZI  42 125
M  ZZM  43 5
M  ZZI  43 1
M  ZZM  44 5
M  ZZI  44 1
M  ZZM  45 5
M  ZZI  45 1
M  ZZM  46 5
M  ZZI  46 1
M  ZZM  47 5
M  ZZI  47 1
M  ZZM  48 5
M  ZZI  48 1
M  ZZM  49 28
M  ZZI  49 11
M  ZZM  50 28
M  ZZI  50 11
M  ZZM  51 5
M  ZZI  51 1
M  ZZM  52 5
M  ZZI  52 1
M  ZZM  53 23
M  ZZI  53 10
M  ZZM  54 5
M  ZZI  54 1
M  ZZM  55 5
M  ZZI  55 1
M  ZZM  56 5
M  ZZI  56 1
M  ZZM  57 5
M  ZZI  57 1
M  ZZM  58 5
M  ZZI  58 1
M  ZZM  59 5
M  ZZI  59 1
M  ZZM  60 5
M  ZZI  60 1
M  ZZM  61 5
M  ZZI  61 1
M  ZZM  62 5
M  ZZI  62 1
M  ZZM  63 5
M  ZZI  63 1
M  ZZM  64 5
M  ZZI  64 1
M  ZZM  65 5
M  ZZI  65 1
M  ZZM  66 5
M  ZZI  66 1
M  ZZM  67 5
M  ZZI  67 1
M  ZZM  68 5
M  ZZI  68 1
M  ZZM  69 5
M  ZZI  69 1
M  ZZM  70 5
M  ZZI  70 1
M  ZZM  71 5
M  ZZI  71 1
M  CHG  1  10  -1
M  END
> <IX>
1

> <NAME>
Mdm2_5GMP_4.pdb

> <Score>
-14.779067

> <Natom>
71

> <Nflex>
5

> <Hbond>
-3.888936

> <Hphob>
-6.287716

> <VwInt>
-25.270122

> <Dsolv>
11.00698

> <SolEl>
17.259448

> <Eintl>
3.160604

> <RecConf>
ND

> <projPath>
Mdm2_maps/

> <NAME_>
Mdm2_5GMP_4.pdb

$$$$
