RNF144_3MXF_28.pdb
  MOLSOFT 04032206383D

 64 69  0  0  1  0  0  0  0  0999 V2000
  -17.3197    3.0355   -6.6419 C   0  0  0  0  0  0  0  0  0  0  0  0
  -16.1039    2.4252   -6.8882 C   0  0  0  0  0  0  0  0  0  0  0  0
  -15.3249    1.5065   -6.0067 C   0  0  1  0  0  0  0  0  0  0  0  0
  -15.0638    2.0515   -4.6344 C   0  0  0  0  0  0  0  0  0  0  0  0
  -14.0737    3.1517   -4.4299 C   0  0  0  0  0  0  0  0  0  0  0  0
  -15.7390    1.3510   -3.7134 C   0  0  0  0  0  0  0  0  0  0  0  0
  -15.6964    1.1501   -2.2338 C   0  0  1  0  0  0  0  0  0  0  0  0
  -14.3370    1.5758   -1.6402 C   0  0  0  0  0  0  0  0  0  0  0  0
  -16.9741    1.8289   -1.5392 C   0  0  2  0  0  0  0  0  0  0  0  0
  -16.7681    3.3075   -1.1157 C   0  0  0  0  0  0  0  0  0  0  0  0
  -16.8203    4.2922   -2.2643 C   0  0  0  0  0  0  0  0  0  0  0  0
  -17.3853    4.1017   -3.3332 O   0  0  0  0  0  0  0  0  0  0  0  0
  -16.1871    5.4520   -1.9145 O   0  0  0  0  0  0  0  0  0  0  0  0
  -16.1714    6.4351   -2.9528 C   0  0  0  0  0  0  0  0  0  0  0  0
  -17.5947    0.9758   -0.3754 C   0  0  1  0  0  0  0  0  0  0  0  0
  -16.7639    1.1119    0.9258 C   0  0  0  0  0  0  0  0  0  0  0  0
  -19.0186    1.3031    0.0591 C   0  0  0  0  0  0  0  0  0  0  0  0
  -19.6292    2.3097   -0.2710 O   0  0  0  0  0  0  0  0  0  0  0  0
  -19.6291    0.3315    1.0119 C   0  0  0  0  0  0  0  0  0  0  0  0
  -19.3394   -0.9746    0.8729 C   0  0  0  0  0  0  0  0  0  0  0  0
  -18.5902   -1.5012   -0.3240 C   0  0  2  0  0  0  0  0  0  0  0  0
  -19.6376   -2.0267   -1.3238 C   0  0  0  0  0  0  0  0  0  0  0  0
  -17.6048   -2.6431   -0.1663 C   0  0  0  0  0  0  0  0  0  0  0  0
  -17.7903   -3.6629    0.4811 O   0  0  0  0  0  0  0  0  0  0  0  0
  -16.5229   -2.4264   -0.9836 O   0  0  0  0  0  0  0  0  0  0  0  0
  -16.3516   -1.0174   -1.0565 C   0  0  1  0  0  0  0  0  0  0  0  0
  -15.7067   -0.4167   -2.2987 C   0  0  1  0  0  0  0  0  0  0  0  0
  -16.4287   -0.8252   -3.4850 O   0  0  0  0  0  0  0  0  0  0  0  0
  -16.5930    0.3245   -4.3149 C   0  0  2  0  0  0  0  0  0  0  0  0
  -16.0238    0.1710   -5.7102 C   0  0  0  0  0  0  0  0  0  0  0  0
  -17.7260   -0.4337   -0.9664 C   0  0  2  0  0  0  0  0  0  0  0  0
  -15.7253    2.8636   -8.1879 C   0  0  0  0  0  0  0  0  0  0  0  0
  -16.7275    3.6916   -8.6373 C   0  0  0  0  0  0  0  0  0  0  0  0
  -17.7072    3.8005   -7.7003 O   0  0  0  0  0  0  0  0  0  0  0  0
  -18.0033    3.0296   -5.8040 H   0  0  0  0  0  0  0  0  0  0  0  0
  -14.3700    1.2899   -6.4974 H   0  0  0  0  0  0  0  0  0  0  0  0
  -14.0556    3.8378   -5.2759 H   0  0  0  0  0  0  0  0  0  0  0  0
  -13.0608    2.7520   -4.3341 H   0  0  0  0  0  0  0  0  0  0  0  0
  -14.3151    3.7176   -3.5265 H   0  0  0  0  0  0  0  0  0  0  0  0
  -14.2021    1.2145   -0.6226 H   0  0  0  0  0  0  0  0  0  0  0  0
  -14.1925    2.6566   -1.6236 H   0  0  0  0  0  0  0  0  0  0  0  0
  -13.4988    1.1652   -2.2132 H   0  0  0  0  0  0  0  0  0  0  0  0
  -17.7627    1.8671   -2.2993 H   0  0  0  0  0  0  0  0  0  0  0  0
  -17.5542    3.6317   -0.4298 H   0  0  0  0  0  0  0  0  0  0  0  0
  -15.8303    3.4343   -0.5724 H   0  0  0  0  0  0  0  0  0  0  0  0
  -15.6290    7.3298   -2.6310 H   0  0  0  0  0  0  0  0  0  0  0  0
  -17.2018    6.7230   -3.1730 H   0  0  0  0  0  0  0  0  0  0  0  0
  -15.7283    6.0229   -3.8648 H   0  0  0  0  0  0  0  0  0  0  0  0
  -17.0293    2.0234    1.4719 H   0  0  0  0  0  0  0  0  0  0  0  0
  -15.6938    1.1751    0.7466 H   0  0  0  0  0  0  0  0  0  0  0  0
  -16.9196    0.2781    1.6171 H   0  0  0  0  0  0  0  0  0  0  0  0
  -20.2760    0.7138    1.7931 H   0  0  0  0  0  0  0  0  0  0  0  0
  -19.7654   -1.6902    1.5698 H   0  0  0  0  0  0  0  0  0  0  0  0
  -20.2560   -2.8214   -0.8911 H   0  0  0  0  0  0  0  0  0  0  0  0
  -19.1727   -2.4302   -2.2301 H   0  0  0  0  0  0  0  0  0  0  0  0
  -20.3250   -1.2321   -1.6346 H   0  0  0  0  0  0  0  0  0  0  0  0
  -15.7203   -0.7768   -0.1978 H   0  0  0  0  0  0  0  0  0  0  0  0
  -14.6999   -0.8382   -2.3991 H   0  0  0  0  0  0  0  0  0  0  0  0
  -17.6489    0.6181   -4.3286 H   0  0  0  0  0  0  0  0  0  0  0  0
  -16.8029   -0.0838   -6.4371 H   0  0  0  0  0  0  0  0  0  0  0  0
  -15.3149   -0.6623   -5.7184 H   0  0  0  0  0  0  0  0  0  0  0  0
  -18.1520   -0.3141   -1.9694 H   0  0  0  0  0  0  0  0  0  0  0  0
  -14.8244    2.6125   -8.7308 H   0  0  0  0  0  0  0  0  0  0  0  0
  -16.8842    4.2550   -9.5464 H   0  0  0  0  0  0  0  0  0  0  0  0
  1 35  1  0  0  0  0
  1  2  2  0  0  0  0
  1 34  1  0  0  0  0
  2 32  1  0  0  0  0
  3  2  1  0  0  0  0
  3 36  1  0  0  0  0
  3 30  1  0  0  0  0
  3  4  1  0  0  0  0
  4  6  2  0  0  0  0
  4  5  1  0  0  0  0
  5 37  1  0  0  0  0
  5 38  1  0  0  0  0
  5 39  1  0  0  0  0
 29  6  1  0  0  0  0
  7  6  1  0  0  0  0
  7  8  1  0  0  0  0
  7 27  1  0  0  0  0
  7  9  1  0  0  0  0
  8 40  1  0  0  0  0
  8 41  1  0  0  0  0
  8 42  1  0  0  0  0
  9 15  1  0  0  0  0
  9 43  1  0  0  0  0
  9 10  1  0  0  0  0
 10 44  1  0  0  0  0
 10 45  1  0  0  0  0
 10 11  1  0  0  0  0
 11 12  2  0  0  0  0
 11 13  1  0  0  0  0
 13 14  1  0  0  0  0
 14 46  1  0  0  0  0
 14 47  1  0  0  0  0
 14 48  1  0  0  0  0
 15 31  1  0  0  0  0
 15 16  1  0  0  0  0
 15 17  1  0  0  0  0
 16 49  1  0  0  0  0
 16 50  1  0  0  0  0
 16 51  1  0  0  0  0
 17 18  2  0  0  0  0
 17 19  1  0  0  0  0
 19 52  1  0  0  0  0
 19 20  2  0  0  0  0
 20 53  1  0  0  0  0
 21 20  1  0  0  0  0
 21 22  1  0  0  0  0
 21 23  1  0  0  0  0
 21 31  1  0  0  0  0
 22 54  1  0  0  0  0
 22 55  1  0  0  0  0
 22 56  1  0  0  0  0
 23 24  2  0  0  0  0
 23 25  1  0  0  0  0
 26 25  1  0  0  0  0
 26 27  1  0  0  0  0
 26 57  1  0  0  0  0
 26 31  1  0  0  0  0
 27 58  1  0  0  0  0
 27 28  1  0  0  0  0
 29 28  1  0  0  0  0
 29 30  1  0  0  0  0
 29 59  1  0  0  0  0
 30 60  1  0  0  0  0
 30 61  1  0  0  0  0
 31 62  1  0  0  0  0
 32 63  1  0  0  0  0
 32 33  2  0  0  0  0
 33 64  1  0  0  0  0
 33 34  1  0  0  0  0
M  ZZC   1 c1
M  ZZC   2 c2
M  ZZC   3 c3
M  ZZC   4 c4
M  ZZC   5 c5
M  ZZC   6 c6
M  ZZC   7 c7
M  ZZC   8 c8
M  ZZC   9 c9
M  ZZC  10 c10
M  ZZC  11 c11
M  ZZC  12 o1
M  ZZC  13 o2
M  ZZC  14 c12
M  ZZC  15 c13
M  ZZC  16 c14
M  ZZC  17 c15
M  ZZC  18 o3
M  ZZC  19 c16
M  ZZC  20 c17
M  ZZC  21 c18
M  ZZC  22 c19
M  ZZC  23 c20
M  ZZC  24 o4
M  ZZC  25 o5
M  ZZC  26 c21
M  ZZC  27 c22
M  ZZC  28 o6
M  ZZC  29 c23
M  ZZC  30 c24
M  ZZC  31 c25
M  ZZC  32 c26
M  ZZC  33 c27
M  ZZC  34 o7
M  ZZC  35 h11
M  ZZC  36 h31
M  ZZC  37 h51
M  ZZC  38 h52
M  ZZC  39 h53
M  ZZC  40 h81
M  ZZC  41 h82
M  ZZC  42 h83
M  ZZC  43 h91
M  ZZC  44 h101
M  ZZC  45 h102
M  ZZC  46 h121
M  ZZC  47 h122
M  ZZC  48 h123
M  ZZC  49 h141
M  ZZC  50 h142
M  ZZC  51 h143
M  ZZC  52 h161
M  ZZC  53 h171
M  ZZC  54 h191
M  ZZC  55 h192
M  ZZC  56 h193
M  ZZC  57 h211
M  ZZC  58 h221
M  ZZC  59 h231
M  ZZC  60 h241
M  ZZC  61 h242
M  ZZC  62 h251
M  ZZC  63 h261
M  ZZC  64 h271
M  ZZM   1 63
M  ZZI   1 104
M  ZZM   2 64
M  ZZI   2 105
M  ZZM   3 1
M  ZZI   3 113
M  ZZM   4 2
M  ZZI   4 120
M  ZZM   5 1
M  ZZI   5 111
M  ZZM   6 2
M  ZZI   6 120
M  ZZM   7 1
M  ZZI   7 110
M  ZZM   8 1
M  ZZI   8 111
M  ZZM   9 1
M  ZZI   9 113
M  ZZM  10 1
M  ZZI  10 112
M  ZZM  11 3
M  ZZI  11 123
M  ZZM  12 7
M  ZZI  12 82
M  ZZM  13 6
M  ZZI  13 65
M  ZZM  14 1
M  ZZI  14 111
M  ZZM  15 1
M  ZZI  15 110
M  ZZM  16 1
M  ZZI  16 111
M  ZZM  17 3
M  ZZI  17 122
M  ZZM  18 7
M  ZZI  18 80
M  ZZM  19 2
M  ZZI  19 120
M  ZZM  20 2
M  ZZI  20 120
M  ZZM  21 1
M  ZZI  21 110
M  ZZM  22 1
M  ZZI  22 111
M  ZZM  23 3
M  ZZI  23 123
M  ZZM  24 7
M  ZZI  24 82
M  ZZM  25 6
M  ZZI  25 65
M  ZZM  26 1
M  ZZI  26 113
M  ZZM  27 1
M  ZZI  27 113
M  ZZM  28 6
M  ZZI  28 65
M  ZZM  29 1
M  ZZI  29 113
M  ZZM  30 1
M  ZZI  30 112
M  ZZM  31 1
M  ZZI  31 113
M  ZZM  32 64
M  ZZI  32 105
M  ZZM  33 63
M  ZZI  33 104
M  ZZM  34 59
M  ZZI  34 56
M  ZZM  35 5
M  ZZI  35 1
M  ZZM  36 5
M  ZZI  36 1
M  ZZM  37 5
M  ZZI  37 1
M  ZZM  38 5
M  ZZI  38 1
M  ZZM  39 5
M  ZZI  39 1
M  ZZM  40 5
M  ZZI  40 1
M  ZZM  41 5
M  ZZI  41 1
M  ZZM  42 5
M  ZZI  42 1
M  ZZM  43 5
M  ZZI  43 1
M  ZZM  44 5
M  ZZI  44 1
M  ZZM  45 5
M  ZZI  45 1
M  ZZM  46 5
M  ZZI  46 1
M  ZZM  47 5
M  ZZI  47 1
M  ZZM  48 5
M  ZZI  48 1
M  ZZM  49 5
M  ZZI  49 1
M  ZZM  50 5
M  ZZI  50 1
M  ZZM  51 5
M  ZZI  51 1
M  ZZM  52 5
M  ZZI  52 1
M  ZZM  53 5
M  ZZI  53 1
M  ZZM  54 5
M  ZZI  54 1
M  ZZM  55 5
M  ZZI  55 1
M  ZZM  56 5
M  ZZI  56 1
M  ZZM  57 5
M  ZZI  57 1
M  ZZM  58 5
M  ZZI  58 1
M  ZZM  59 5
M  ZZI  59 1
M  ZZM  60 5
M  ZZI  60 1
M  ZZM  61 5
M  ZZI  61 1
M  ZZM  62 5
M  ZZI  62 1
M  ZZM  63 5
M  ZZI  63 1
M  ZZM  64 5
M  ZZI  64 1
M  END
> <IX>
1

> <NAME>
RNF144_3MXF_28.pdb

> <Score>
-4.025792

> <Natom>
64

> <Nflex>
3

> <Hbond>
0.

> <Hphob>
-5.41531

> <VwInt>
-22.332727

> <Dsolv>
12.161172

> <SolEl>
16.549167

> <Eintl>
0.153105

> <RecConf>
ND

> <projPath>
RNF144_maps/

> <NAME_>
RNF144_3MXF_28.pdb

$$$$
