RNF4_3ONI_1.pdb
  MOLSOFT 04032206333D

 47 49  0  0  0  0  0  0  0  0999 V2000
    1.5396   28.6362   -7.7618 Cl  0  0  0  0  0  0  0  0  0  0  0  0
    0.9983   28.4438   -6.0726 C   0  0  0  0  0  0  0  0  0  0  0  0
   -0.5166   28.3737   -5.9921 C   0  0  0  0  0  0  0  0  0  0  0  0
   -1.1665   28.0931   -6.9917 O   0  0  0  0  0  0  0  0  0  0  0  0
   -1.0827   28.6050   -4.7227 N   0  0  0  0  0  0  0  0  0  0  0  0
   -0.2854   28.3787   -3.4905 C   0  0  0  0  0  0  0  0  0  0  0  0
    0.2616   29.6130   -2.7900 C   0  0  0  0  0  0  0  0  0  0  0  0
   -0.5319   30.4235   -1.9763 C   0  0  0  0  0  0  0  0  0  0  0  0
    0.0048   31.4885   -1.2734 C   0  0  0  0  0  0  0  0  0  0  0  0
    1.3514   31.7770   -1.3677 C   0  0  0  0  0  0  0  0  0  0  0  0
    2.1565   30.9963   -2.1718 C   0  0  0  0  0  0  0  0  0  0  0  0
    1.6179   29.9298   -2.8705 C   0  0  0  0  0  0  0  0  0  0  0  0
   -2.4902   28.9140   -4.6063 C   0  0  0  0  0  0  0  0  0  0  0  0
   -3.1717   28.7711   -3.3989 C   0  0  0  0  0  0  0  0  0  0  0  0
   -4.5032   29.1079   -3.2605 C   0  0  0  0  0  0  0  0  0  0  0  0
   -5.2150   29.5852   -4.3365 C   0  0  0  0  0  0  0  0  0  0  0  0
   -6.9007   29.9994   -4.1879 O   0  0  0  0  0  0  0  0  0  0  0  0
   -7.7233   30.3557   -2.6909 C   0  0  0  0  0  0  0  0  0  0  0  0
   -9.1009   30.2442   -2.6606 C   0  0  0  0  0  0  0  0  0  0  0  0
   -9.7994   30.5070   -1.4935 C   0  0  0  0  0  0  0  0  0  0  0  0
   -9.1077   30.9047   -0.3499 C   0  0  0  0  0  0  0  0  0  0  0  0
   -9.7220   31.2024    0.8713 O   0  0  0  0  0  0  0  0  0  0  0  0
  -10.9464   30.4875    1.0899 C   0  0  0  0  0  0  0  0  0  0  0  0
   -7.7324   31.0632   -0.3967 C   0  0  0  0  0  0  0  0  0  0  0  0
   -7.0389   30.7823   -1.5625 C   0  0  0  0  0  0  0  0  0  0  0  0
   -4.5868   29.7018   -5.5587 C   0  0  0  0  0  0  0  0  0  0  0  0
   -3.2405   29.3908   -5.6882 C   0  0  0  0  0  0  0  0  0  0  0  0
    1.4292   27.5179   -5.6863 H   0  0  0  0  0  0  0  0  0  0  0  0
    1.3741   29.3114   -5.5303 H   0  0  0  0  0  0  0  0  0  0  0  0
   -0.8435   27.7628   -2.7815 H   0  0  0  0  0  0  0  0  0  0  0  0
    0.5553   27.7266   -3.7387 H   0  0  0  0  0  0  0  0  0  0  0  0
   -1.5877   30.2262   -1.8512 H   0  0  0  0  0  0  0  0  0  0  0  0
   -0.6339   32.0943   -0.6377 H   0  0  0  0  0  0  0  0  0  0  0  0
    1.7752   32.6075   -0.8120 H   0  0  0  0  0  0  0  0  0  0  0  0
    3.2176   31.2136   -2.2439 H   0  0  0  0  0  0  0  0  0  0  0  0
    2.2884   29.3230   -3.4671 H   0  0  0  0  0  0  0  0  0  0  0  0
   -2.6819   28.3758   -2.5244 H   0  0  0  0  0  0  0  0  0  0  0  0
   -4.9949   28.9639   -2.3090 H   0  0  0  0  0  0  0  0  0  0  0  0
   -9.6297   29.9294   -3.5537 H   0  0  0  0  0  0  0  0  0  0  0  0
  -10.8783   30.4036   -1.4993 H   0  0  0  0  0  0  0  0  0  0  0  0
  -11.7667   30.9529    0.5346 H   0  0  0  0  0  0  0  0  0  0  0  0
  -11.1871   30.5503    2.1542 H   0  0  0  0  0  0  0  0  0  0  0  0
  -10.8495   29.4263    0.8331 H   0  0  0  0  0  0  0  0  0  0  0  0
   -7.1963   31.3979    0.4853 H   0  0  0  0  0  0  0  0  0  0  0  0
   -5.9659   30.9275   -1.5913 H   0  0  0  0  0  0  0  0  0  0  0  0
   -5.1465   30.0677   -6.4129 H   0  0  0  0  0  0  0  0  0  0  0  0
   -2.7886   29.5620   -6.6578 H   0  0  0  0  0  0  0  0  0  0  0  0
  2  1  1  0  0  0  0
  2 28  1  0  0  0  0
  2 29  1  0  0  0  0
  2  3  1  0  0  0  0
  3  4  2  0  0  0  0
  3  5  1  0  0  0  0
  5  6  1  0  0  0  0
  5 13  1  0  0  0  0
  6 30  1  0  0  0  0
  6 31  1  0  0  0  0
  6  7  1  0  0  0  0
  7  8  1  0  0  0  0
  7 12  2  0  0  0  0
  8 32  1  0  0  0  0
  8  9  2  0  0  0  0
  9 33  1  0  0  0  0
  9 10  1  0  0  0  0
 10 34  1  0  0  0  0
 10 11  2  0  0  0  0
 11 35  1  0  0  0  0
 11 12  1  0  0  0  0
 12 36  1  0  0  0  0
 13 14  1  0  0  0  0
 13 27  2  0  0  0  0
 14 37  1  0  0  0  0
 14 15  2  0  0  0  0
 15 38  1  0  0  0  0
 15 16  1  0  0  0  0
 16 26  2  0  0  0  0
 16 17  1  0  0  0  0
 17 18  1  0  0  0  0
 18 19  1  0  0  0  0
 18 25  2  0  0  0  0
 19 39  1  0  0  0  0
 19 20  2  0  0  0  0
 20 40  1  0  0  0  0
 20 21  1  0  0  0  0
 21 24  2  0  0  0  0
 21 22  1  0  0  0  0
 22 23  1  0  0  0  0
 23 41  1  0  0  0  0
 23 42  1  0  0  0  0
 23 43  1  0  0  0  0
 24 44  1  0  0  0  0
 24 25  1  0  0  0  0
 25 45  1  0  0  0  0
 26 46  1  0  0  0  0
 26 27  1  0  0  0  0
 27 47  1  0  0  0  0
M  ZZC   1 &Cl1
M  ZZC   2 c1
M  ZZC   3 c2
M  ZZC   4 o1
M  ZZC   5 n1
M  ZZC   6 c3
M  ZZC   7 c4
M  ZZC   8 c5
M  ZZC   9 c6
M  ZZC  10 c7
M  ZZC  11 c8
M  ZZC  12 c9
M  ZZC  13 c10
M  ZZC  14 c11
M  ZZC  15 c12
M  ZZC  16 c13
M  ZZC  17 o2
M  ZZC  18 c14
M  ZZC  19 c15
M  ZZC  20 c16
M  ZZC  21 c17
M  ZZC  22 o3
M  ZZC  23 c18
M  ZZC  24 c19
M  ZZC  25 c20
M  ZZC  26 c21
M  ZZC  27 c22
M  ZZC  28 h11
M  ZZC  29 h12
M  ZZC  30 h31
M  ZZC  31 h32
M  ZZC  32 h51
M  ZZC  33 h61
M  ZZC  34 h71
M  ZZC  35 h81
M  ZZC  36 h91
M  ZZC  37 h111
M  ZZC  38 h121
M  ZZC  39 h151
M  ZZC  40 h161
M  ZZC  41 h181
M  ZZC  42 h182
M  ZZC  43 h183
M  ZZC  44 h191
M  ZZC  45 h201
M  ZZC  46 h211
M  ZZC  47 h221
M  ZZM   1 12
M  ZZI   1 92
M  ZZM   2 1
M  ZZI   2 112
M  ZZM   3 3
M  ZZI   3 121
M  ZZM   4 7
M  ZZI   4 81
M  ZZM   5 10
M  ZZI   5 192
M  ZZM   6 1
M  ZZI   6 112
M  ZZM   7 37
M  ZZI   7 124
M  ZZM   8 37
M  ZZI   8 125
M  ZZM   9 37
M  ZZI   9 125
M  ZZM  10 37
M  ZZI  10 125
M  ZZM  11 37
M  ZZI  11 125
M  ZZM  12 37
M  ZZI  12 125
M  ZZM  13 37
M  ZZI  13 124
M  ZZM  14 37
M  ZZI  14 125
M  ZZM  15 37
M  ZZI  15 125
M  ZZM  16 37
M  ZZI  16 124
M  ZZM  17 0
M  ZZI  17 67
M  ZZM  18 37
M  ZZI  18 124
M  ZZM  19 37
M  ZZI  19 125
M  ZZM  20 37
M  ZZI  20 125
M  ZZM  21 37
M  ZZI  21 124
M  ZZM  22 6
M  ZZI  22 59
M  ZZM  23 1
M  ZZI  23 111
M  ZZM  24 37
M  ZZI  24 125
M  ZZM  25 37
M  ZZI  25 125
M  ZZM  26 37
M  ZZI  26 125
M  ZZM  27 37
M  ZZI  27 125
M  ZZM  28 5
M  ZZI  28 1
M  ZZM  29 5
M  ZZI  29 1
M  ZZM  30 5
M  ZZI  30 1
M  ZZM  31 5
M  ZZI  31 1
M  ZZM  32 5
M  ZZI  32 1
M  ZZM  33 5
M  ZZI  33 1
M  ZZM  34 5
M  ZZI  34 1
M  ZZM  35 5
M  ZZI  35 1
M  ZZM  36 5
M  ZZI  36 1
M  ZZM  37 5
M  ZZI  37 1
M  ZZM  38 5
M  ZZI  38 1
M  ZZM  39 5
M  ZZI  39 1
M  ZZM  40 5
M  ZZI  40 1
M  ZZM  41 5
M  ZZI  41 1
M  ZZM  42 5
M  ZZI  42 1
M  ZZM  43 5
M  ZZI  43 1
M  ZZM  44 5
M  ZZI  44 1
M  ZZM  45 5
M  ZZI  45 1
M  ZZM  46 5
M  ZZI  46 1
M  ZZM  47 5
M  ZZI  47 1
M  END
> <IX>
1

> <NAME>
RNF4_3ONI_1.pdb

> <Score>
-16.61254

> <Natom>
47

> <Nflex>
6

> <Hbond>
-4.193018

> <Hphob>
-5.64509

> <VwInt>
-21.860125

> <Dsolv>
10.314889

> <SolEl>
7.551206

> <Eintl>
5.530281

> <RecConf>
ND

> <projPath>
RNF4_maps/

> <NAME_>
RNF4_3ONI_1.pdb

$$$$
