VHL_5T8E_13.pdb
  MOLSOFT 04032206433D

 75 78  0  0  1  0  0  0  0  0999 V2000
   13.5165    8.3461   -7.7533 C   0  0  0  0  0  0  0  0  0  0  0  0
   14.0808    7.9916   -6.3857 C   0  0  0  0  0  0  0  0  0  0  0  0
   14.2242    6.4854   -6.2213 C   0  0  0  0  0  0  0  0  0  0  0  0
   14.9778    5.8942   -7.3301 N   0  0  0  0  0  0  0  0  0  0  0  0
   16.0721    5.0301   -7.2171 C   0  0  0  0  0  0  0  0  0  0  0  0
   16.6901    4.6196   -8.1923 O   0  0  0  0  0  0  0  0  0  0  0  0
   16.4549    4.5524   -5.8239 C   0  0  0  0  0  0  0  0  0  0  0  0
   15.4677    3.4852   -5.3200 C   0  0  2  0  0  0  0  0  0  0  0  0
   15.7688    3.0687   -3.9546 N   0  0  0  0  0  0  0  0  0  0  0  0
   14.7794    2.7853   -3.0248 C   0  0  0  0  0  0  0  0  0  0  0  0
   13.5903    3.0078   -3.2100 O   0  0  0  0  0  0  0  0  0  0  0  0
   15.2987    2.0713   -1.7670 C   0  0  2  0  0  0  0  0  0  0  0  0
   14.8916    0.6721   -1.8329 N   0  0  0  0  0  0  0  0  0  0  0  0
   15.5665   -0.2386   -2.6490 C   0  0  0  0  0  0  0  0  0  0  0  0
   16.6035    0.0600   -3.2266 O   0  0  0  0  0  0  0  0  0  0  0  0
   14.8985   -1.5977   -2.8671 C   0  0  2  0  0  0  0  0  0  0  0  0
   15.9358   -2.7557   -2.8863 C   0  0  0  0  0  0  0  0  0  0  0  0
   15.2607   -4.1326   -2.9080 C   0  0  0  0  0  0  0  0  0  0  0  0
   16.8512   -2.7125   -1.6585 C   0  0  0  0  0  0  0  0  0  0  0  0
   14.1043   -1.4356   -4.1339 C   0  0  0  0  0  0  0  0  0  0  0  0
   14.3544   -2.2812   -5.1738 O   0  0  0  0  0  0  0  0  0  0  0  0
   13.4732   -2.0054   -6.2247 N   0  0  0  0  0  0  0  0  0  0  0  0
   12.7476   -0.9593   -5.8166 C   0  0  0  0  0  0  0  0  0  0  0  0
   11.6900   -0.3987   -6.6820 C   0  0  0  0  0  0  0  0  0  0  0  0
   13.1227   -0.5506   -4.5196 C   0  0  0  0  0  0  0  0  0  0  0  0
   13.8222    0.3818   -0.8904 C   0  0  0  0  0  0  0  0  0  0  0  0
   13.4143    1.7257   -0.3035 C   0  0  1  0  0  0  0  0  0  0  0  0
   13.1056    1.6442    1.0905 O   0  0  0  0  0  0  0  0  0  0  0  0
   14.6453    2.5967   -0.4967 C   0  0  0  0  0  0  0  0  0  0  0  0
   15.4761    2.2952   -6.2547 C   0  0  0  0  0  0  0  0  0  0  0  0
   16.4939    1.3403   -6.2255 C   0  0  0  0  0  0  0  0  0  0  0  0
   16.5043    0.2867   -7.1175 C   0  0  0  0  0  0  0  0  0  0  0  0
   15.5224    0.1858   -8.0786 C   0  0  0  0  0  0  0  0  0  0  0  0
   14.5231    1.1380   -8.1332 C   0  0  0  0  0  0  0  0  0  0  0  0
   14.4855    2.1725   -7.2234 C   0  0  0  0  0  0  0  0  0  0  0  0
   14.4615    6.2035   -8.6593 C   0  0  0  0  0  0  0  0  0  0  0  0
   14.3335    7.7030   -8.8648 C   0  0  0  0  0  0  0  0  0  0  0  0
   12.4776    8.0075   -7.8214 H   0  0  0  0  0  0  0  0  0  0  0  0
   13.5086    9.4320   -7.8767 H   0  0  0  0  0  0  0  0  0  0  0  0
   15.0613    8.4657   -6.2681 H   0  0  0  0  0  0  0  0  0  0  0  0
   13.4341    8.3939   -5.5994 H   0  0  0  0  0  0  0  0  0  0  0  0
   14.6834    6.2725   -5.2558 H   0  0  0  0  0  0  0  0  0  0  0  0
   13.2360    6.0189   -6.2140 H   0  0  0  0  0  0  0  0  0  0  0  0
   17.4724    4.1480   -5.8773 H   0  0  0  0  0  0  0  0  0  0  0  0
   16.5221    5.4009   -5.1368 H   0  0  0  0  0  0  0  0  0  0  0  0
   14.4528    3.8947   -5.3078 H   0  0  0  0  0  0  0  0  0  0  0  0
   16.7225    2.7909   -3.7482 H   0  0  0  0  0  0  0  0  0  0  0  0
   16.3909    2.1486   -1.7153 H   0  0  0  0  0  0  0  0  0  0  0  0
   14.1968   -1.8011   -2.0534 H   0  0  0  0  0  0  0  0  0  0  0  0
   16.5695   -2.6729   -3.7774 H   0  0  0  0  0  0  0  0  0  0  0  0
   14.6664   -4.2991   -2.0046 H   0  0  0  0  0  0  0  0  0  0  0  0
   16.0060   -4.9324   -2.9594 H   0  0  0  0  0  0  0  0  0  0  0  0
   14.6005   -4.2607   -3.7670 H   0  0  0  0  0  0  0  0  0  0  0  0
   17.4854   -1.8223   -1.6495 H   0  0  0  0  0  0  0  0  0  0  0  0
   17.5221   -3.5758   -1.6411 H   0  0  0  0  0  0  0  0  0  0  0  0
   16.2731   -2.7259   -0.7289 H   0  0  0  0  0  0  0  0  0  0  0  0
   10.7370   -0.8934   -6.4779 H   0  0  0  0  0  0  0  0  0  0  0  0
   11.9224   -0.5413   -7.7398 H   0  0  0  0  0  0  0  0  0  0  0  0
   11.5658    0.6728   -6.5054 H   0  0  0  0  0  0  0  0  0  0  0  0
   12.7113    0.2633   -3.9412 H   0  0  0  0  0  0  0  0  0  0  0  0
   12.9822   -0.1023   -1.3956 H   0  0  0  0  0  0  0  0  0  0  0  0
   14.1980   -0.3111   -0.1292 H   0  0  0  0  0  0  0  0  0  0  0  0
   12.5543    2.1432   -0.8384 H   0  0  0  0  0  0  0  0  0  0  0  0
   12.3448    1.0484    1.2159 H   0  0  0  0  0  0  0  0  0  0  0  0
   15.3248    2.4753    0.3549 H   0  0  0  0  0  0  0  0  0  0  0  0
   14.3898    3.6606   -0.5470 H   0  0  0  0  0  0  0  0  0  0  0  0
   17.2999    1.4041   -5.5017 H   0  0  0  0  0  0  0  0  0  0  0  0
   17.2890   -0.4599   -7.0651 H   0  0  0  0  0  0  0  0  0  0  0  0
   15.5376   -0.6423   -8.7770 H   0  0  0  0  0  0  0  0  0  0  0  0
   13.7509    1.0781   -8.8849 H   0  0  0  0  0  0  0  0  0  0  0  0
   13.6816    2.9002   -7.2931 H   0  0  0  0  0  0  0  0  0  0  0  0
   15.0980    5.7739   -9.4380 H   0  0  0  0  0  0  0  0  0  0  0  0
   13.4808    5.7227   -8.7494 H   0  0  0  0  0  0  0  0  0  0  0  0
   13.8638    7.8959   -9.8305 H   0  0  0  0  0  0  0  0  0  0  0  0
   15.3300    8.1571   -8.8926 H   0  0  0  0  0  0  0  0  0  0  0  0
  1 38  1  0  0  0  0
  1 39  1  0  0  0  0
  1  2  1  0  0  0  0
  1 37  1  0  0  0  0
  2 40  1  0  0  0  0
  2 41  1  0  0  0  0
  2  3  1  0  0  0  0
  3 42  1  0  0  0  0
  3 43  1  0  0  0  0
  3  4  1  0  0  0  0
  4 36  1  0  0  0  0
  4  5  1  0  0  0  0
  5  6  2  0  0  0  0
  5  7  1  0  0  0  0
  7 44  1  0  0  0  0
  7 45  1  0  0  0  0
  8  7  1  0  0  0  0
  8 46  1  0  0  0  0
  8 30  1  0  0  0  0
  8  9  1  0  0  0  0
  9 47  1  0  0  0  0
  9 10  1  0  0  0  0
 10 11  2  0  0  0  0
 12 10  1  0  0  0  0
 12 48  1  0  0  0  0
 12 29  1  0  0  0  0
 12 13  1  0  0  0  0
 13 26  1  0  0  0  0
 13 14  1  0  0  0  0
 14 15  2  0  0  0  0
 16 14  1  0  0  0  0
 16 49  1  0  0  0  0
 16 17  1  0  0  0  0
 16 20  1  0  0  0  0
 17 50  1  0  0  0  0
 17 19  1  0  0  0  0
 17 18  1  0  0  0  0
 18 51  1  0  0  0  0
 18 52  1  0  0  0  0
 18 53  1  0  0  0  0
 19 54  1  0  0  0  0
 19 55  1  0  0  0  0
 19 56  1  0  0  0  0
 20 25  2  0  0  0  0
 20 21  1  0  0  0  0
 21 22  1  0  0  0  0
 22 23  2  0  0  0  0
 23 25  1  0  0  0  0
 23 24  1  0  0  0  0
 24 57  1  0  0  0  0
 24 58  1  0  0  0  0
 24 59  1  0  0  0  0
 25 60  1  0  0  0  0
 27 26  1  0  0  0  0
 26 61  1  0  0  0  0
 26 62  1  0  0  0  0
 27 29  1  0  0  0  0
 27 63  1  0  0  0  0
 27 28  1  0  0  0  0
 28 64  1  0  0  0  0
 29 65  1  0  0  0  0
 29 66  1  0  0  0  0
 30 31  1  0  0  0  0
 30 35  2  0  0  0  0
 31 67  1  0  0  0  0
 31 32  2  0  0  0  0
 32 68  1  0  0  0  0
 32 33  1  0  0  0  0
 33 69  1  0  0  0  0
 33 34  2  0  0  0  0
 34 70  1  0  0  0  0
 34 35  1  0  0  0  0
 35 71  1  0  0  0  0
 36 72  1  0  0  0  0
 36 73  1  0  0  0  0
 36 37  1  0  0  0  0
 37 74  1  0  0  0  0
 37 75  1  0  0  0  0
M  ZZC   1 c1
M  ZZC   2 c2
M  ZZC   3 c3
M  ZZC   4 n1
M  ZZC   5 c4
M  ZZC   6 o1
M  ZZC   7 c5
M  ZZC   8 c6
M  ZZC   9 n2
M  ZZC  10 c7
M  ZZC  11 o2
M  ZZC  12 c8
M  ZZC  13 n3
M  ZZC  14 c9
M  ZZC  15 o3
M  ZZC  16 c10
M  ZZC  17 c11
M  ZZC  18 c12
M  ZZC  19 c13
M  ZZC  20 c14
M  ZZC  21 o4
M  ZZC  22 n4
M  ZZC  23 c15
M  ZZC  24 c16
M  ZZC  25 c17
M  ZZC  26 c18
M  ZZC  27 c19
M  ZZC  28 o5
M  ZZC  29 c20
M  ZZC  30 c21
M  ZZC  31 c22
M  ZZC  32 c23
M  ZZC  33 c24
M  ZZC  34 c25
M  ZZC  35 c26
M  ZZC  36 c27
M  ZZC  37 c28
M  ZZC  38 h11
M  ZZC  39 h12
M  ZZC  40 h21
M  ZZC  41 h22
M  ZZC  42 h31
M  ZZC  43 h32
M  ZZC  44 h51
M  ZZC  45 h52
M  ZZC  46 h61
M  ZZC  47 h01
M  ZZC  48 h81
M  ZZC  49 h101
M  ZZC  50 h111
M  ZZC  51 h121
M  ZZC  52 h122
M  ZZC  53 h123
M  ZZC  54 h131
M  ZZC  55 h132
M  ZZC  56 h133
M  ZZC  57 h161
M  ZZC  58 h162
M  ZZC  59 h163
M  ZZC  60 h171
M  ZZC  61 h181
M  ZZC  62 h182
M  ZZC  63 h191
M  ZZC  64 h02
M  ZZC  65 h201
M  ZZC  66 h202
M  ZZC  67 h221
M  ZZC  68 h231
M  ZZC  69 h241
M  ZZC  70 h251
M  ZZC  71 h261
M  ZZC  72 h271
M  ZZC  73 h272
M  ZZC  74 h281
M  ZZC  75 h282
M  ZZM   1 1
M  ZZI   1 112
M  ZZM   2 1
M  ZZI   2 112
M  ZZM   3 1
M  ZZI   3 112
M  ZZM   4 10
M  ZZI   4 192
M  ZZM   5 3
M  ZZI   5 121
M  ZZM   6 7
M  ZZI   6 81
M  ZZM   7 1
M  ZZI   7 112
M  ZZM   8 1
M  ZZI   8 113
M  ZZM   9 10
M  ZZI   9 211
M  ZZM  10 3
M  ZZI  10 121
M  ZZM  11 7
M  ZZI  11 81
M  ZZM  12 1
M  ZZI  12 113
M  ZZM  13 10
M  ZZI  13 192
M  ZZM  14 3
M  ZZI  14 121
M  ZZM  15 7
M  ZZI  15 81
M  ZZM  16 1
M  ZZI  16 113
M  ZZM  17 1
M  ZZI  17 113
M  ZZM  18 1
M  ZZI  18 111
M  ZZM  19 1
M  ZZI  19 111
M  ZZM  20 63
M  ZZI  20 104
M  ZZM  21 59
M  ZZI  21 56
M  ZZM  22 65
M  ZZI  22 207
M  ZZM  23 64
M  ZZI  23 105
M  ZZM  24 1
M  ZZI  24 111
M  ZZM  25 64
M  ZZI  25 105
M  ZZM  26 1
M  ZZI  26 112
M  ZZM  27 1
M  ZZI  27 113
M  ZZM  28 6
M  ZZI  28 60
M  ZZM  29 1
M  ZZI  29 112
M  ZZM  30 37
M  ZZI  30 124
M  ZZM  31 37
M  ZZI  31 125
M  ZZM  32 37
M  ZZI  32 125
M  ZZM  33 37
M  ZZI  33 125
M  ZZM  34 37
M  ZZI  34 125
M  ZZM  35 37
M  ZZI  35 125
M  ZZM  36 1
M  ZZI  36 112
M  ZZM  37 1
M  ZZI  37 112
M  ZZM  38 5
M  ZZI  38 1
M  ZZM  39 5
M  ZZI  39 1
M  ZZM  40 5
M  ZZI  40 1
M  ZZM  41 5
M  ZZI  41 1
M  ZZM  42 5
M  ZZI  42 1
M  ZZM  43 5
M  ZZI  43 1
M  ZZM  44 5
M  ZZI  44 1
M  ZZM  45 5
M  ZZI  45 1
M  ZZM  46 5
M  ZZI  46 1
M  ZZM  47 28
M  ZZI  47 11
M  ZZM  48 5
M  ZZI  48 1
M  ZZM  49 5
M  ZZI  49 1
M  ZZM  50 5
M  ZZI  50 1
M  ZZM  51 5
M  ZZI  51 1
M  ZZM  52 5
M  ZZI  52 1
M  ZZM  53 5
M  ZZI  53 1
M  ZZM  54 5
M  ZZI  54 1
M  ZZM  55 5
M  ZZI  55 1
M  ZZM  56 5
M  ZZI  56 1
M  ZZM  57 5
M  ZZI  57 1
M  ZZM  58 5
M  ZZI  58 1
M  ZZM  59 5
M  ZZI  59 1
M  ZZM  60 5
M  ZZI  60 1
M  ZZM  61 5
M  ZZI  61 1
M  ZZM  62 5
M  ZZI  62 1
M  ZZM  63 5
M  ZZI  63 1
M  ZZM  64 21
M  ZZI  64 20
M  ZZM  65 5
M  ZZI  65 1
M  ZZM  66 5
M  ZZI  66 1
M  ZZM  67 5
M  ZZI  67 1
M  ZZM  68 5
M  ZZI  68 1
M  ZZM  69 5
M  ZZI  69 1
M  ZZM  70 5
M  ZZI  70 1
M  ZZM  71 5
M  ZZI  71 1
M  ZZM  72 5
M  ZZI  72 1
M  ZZM  73 5
M  ZZI  73 1
M  ZZM  74 5
M  ZZI  74 1
M  ZZM  75 5
M  ZZI  75 1
M  END
> <IX>
1

> <NAME>
VHL_5T8E_13.pdb

> <Score>
-8.050757

> <Natom>
75

> <Nflex>
11

> <Hbond>
-3.757431

> <Hphob>
-7.492058

> <VwInt>
-27.146467

> <Dsolv>
18.033197

> <SolEl>
15.18243

> <Eintl>
5.79398

> <RecConf>
ND

> <projPath>
VHL_maps/

> <NAME_>
VHL_5T8E_13.pdb

$$$$
