VHL_5G0J_7.pdb
  MOLSOFT 04032206413D

 65 67  0  0  1  0  0  0  0  0999 V2000
   18.3968   -6.9396   -5.3543 C   0  0  0  0  0  0  0  0  0  0  0  0
   17.2130   -6.0128   -5.2993 C   0  0  0  0  0  0  0  0  0  0  0  0
   16.1116   -6.3832   -5.6727 O   0  0  0  0  0  0  0  0  0  0  0  0
   17.5036   -4.7653   -4.7796 N   0  0  0  0  0  0  0  0  0  0  0  0
   16.5248   -3.6793   -4.6645 C   0  0  1  0  0  0  0  0  0  0  0  0
   15.8976   -3.5564   -3.2376 C   0  0  0  0  0  0  0  0  0  0  0  0
   14.6677   -2.6351   -3.2724 C   0  0  0  0  0  0  0  0  0  0  0  0
   16.8941   -2.9918   -2.2128 C   0  0  0  0  0  0  0  0  0  0  0  0
   15.4235   -4.9257   -2.7262 C   0  0  0  0  0  0  0  0  0  0  0  0
   17.2155   -2.3837   -5.1333 C   0  0  0  0  0  0  0  0  0  0  0  0
   18.3658   -2.1269   -4.8087 O   0  0  0  0  0  0  0  0  0  0  0  0
   16.4723   -1.4688   -5.8802 N   0  0  0  0  0  0  0  0  0  0  0  0
   17.0294   -0.1668   -6.2270 C   0  0  2  0  0  0  0  0  0  0  0  0
   17.2023    0.7997   -5.0630 C   0  0  0  0  0  0  0  0  0  0  0  0
   16.5458    0.7456   -4.0320 O   0  0  0  0  0  0  0  0  0  0  0  0
   18.1030    1.8032   -5.3657 N   0  0  0  0  0  0  0  0  0  0  0  0
   18.2092    3.0070   -4.5756 C   0  0  0  0  0  0  0  0  0  0  0  0
   17.2679    4.0557   -5.1098 C   0  0  0  0  0  0  0  0  0  0  0  0
   16.0720    4.3377   -4.4574 C   0  0  0  0  0  0  0  0  0  0  0  0
   15.1976    5.2862   -4.9597 C   0  0  0  0  0  0  0  0  0  0  0  0
   15.4922    5.9717   -6.1344 C   0  0  0  0  0  0  0  0  0  0  0  0
   14.6067    7.0108   -6.6390 C   0  0  0  0  0  0  0  0  0  0  0  0
   13.9317    7.1312   -7.8475 C   0  0  0  0  0  0  0  0  0  0  0  0
   13.9007    6.1472   -8.9532 C   0  0  0  0  0  0  0  0  0  0  0  0
   13.2261    8.3076   -8.0056 N   0  0  0  0  0  0  0  0  0  0  0  0
   13.3658    9.0498   -6.9302 C   0  0  0  0  0  0  0  0  0  0  0  0
   14.3053    8.3972   -5.6689 S   0  0  0  0  0  0  0  0  0  0  0  0
   16.6724    5.6681   -6.8048 C   0  0  0  0  0  0  0  0  0  0  0  0
   17.5498    4.7245   -6.2981 C   0  0  0  0  0  0  0  0  0  0  0  0
   16.0389    0.4477   -7.2100 C   0  0  0  0  0  0  0  0  0  0  0  0
   15.3772   -0.7553   -7.8406 C   0  0  1  0  0  0  0  0  0  0  0  0
   16.1772   -1.2303   -8.9326 O   0  0  0  0  0  0  0  0  0  0  0  0
   15.3268   -1.7769   -6.7125 C   0  0  0  0  0  0  0  0  0  0  0  0
   19.3400   -6.3980   -5.2386 H   0  0  0  0  0  0  0  0  0  0  0  0
   18.4096   -7.4464   -6.3230 H   0  0  0  0  0  0  0  0  0  0  0  0
   18.3034   -7.6824   -4.5586 H   0  0  0  0  0  0  0  0  0  0  0  0
   18.4532   -4.5774   -4.4808 H   0  0  0  0  0  0  0  0  0  0  0  0
   15.7399   -3.9207   -5.3673 H   0  0  0  0  0  0  0  0  0  0  0  0
   14.9406   -1.6136   -3.5567 H   0  0  0  0  0  0  0  0  0  0  0  0
   14.1831   -2.5785   -2.2926 H   0  0  0  0  0  0  0  0  0  0  0  0
   13.9202   -2.9736   -3.9945 H   0  0  0  0  0  0  0  0  0  0  0  0
   16.4730   -2.9980   -1.2022 H   0  0  0  0  0  0  0  0  0  0  0  0
   17.1699   -1.9563   -2.4335 H   0  0  0  0  0  0  0  0  0  0  0  0
   17.8142   -3.5784   -2.1821 H   0  0  0  0  0  0  0  0  0  0  0  0
   14.9358   -4.8436   -1.7498 H   0  0  0  0  0  0  0  0  0  0  0  0
   16.2510   -5.6301   -2.6062 H   0  0  0  0  0  0  0  0  0  0  0  0
   14.6982   -5.3737   -3.4082 H   0  0  0  0  0  0  0  0  0  0  0  0
   18.0025   -0.3321   -6.6915 H   0  0  0  0  0  0  0  0  0  0  0  0
   18.6402    1.7542   -6.2250 H   0  0  0  0  0  0  0  0  0  0  0  0
   17.9946    2.7810   -3.5255 H   0  0  0  0  0  0  0  0  0  0  0  0
   19.2448    3.3583   -4.6336 H   0  0  0  0  0  0  0  0  0  0  0  0
   15.8101    3.8120   -3.5433 H   0  0  0  0  0  0  0  0  0  0  0  0
   14.2747    5.4849   -4.4221 H   0  0  0  0  0  0  0  0  0  0  0  0
   14.8814    6.0664   -9.4303 H   0  0  0  0  0  0  0  0  0  0  0  0
   13.1793    6.4413   -9.7209 H   0  0  0  0  0  0  0  0  0  0  0  0
   13.6105    5.1575   -8.5880 H   0  0  0  0  0  0  0  0  0  0  0  0
   12.9170   10.0252   -6.8323 H   0  0  0  0  0  0  0  0  0  0  0  0
   16.9311    6.1874   -7.7234 H   0  0  0  0  0  0  0  0  0  0  0  0
   18.4672    4.5145   -6.8405 H   0  0  0  0  0  0  0  0  0  0  0  0
   15.2886    1.0514   -6.6858 H   0  0  0  0  0  0  0  0  0  0  0  0
   16.5402    1.0910   -7.9412 H   0  0  0  0  0  0  0  0  0  0  0  0
   14.3830   -0.5204   -8.2201 H   0  0  0  0  0  0  0  0  0  0  0  0
   17.1109   -1.1755   -8.6566 H   0  0  0  0  0  0  0  0  0  0  0  0
   15.3894   -2.7996   -7.0913 H   0  0  0  0  0  0  0  0  0  0  0  0
   14.4285   -1.6514   -6.1000 H   0  0  0  0  0  0  0  0  0  0  0  0
  1 34  1  0  0  0  0
  1 35  1  0  0  0  0
  1 36  1  0  0  0  0
  1  2  1  0  0  0  0
  2  3  2  0  0  0  0
  2  4  1  0  0  0  0
  4 37  1  0  0  0  0
  5  4  1  0  0  0  0
  5 38  1  0  0  0  0
  5  6  1  0  0  0  0
  5 10  1  0  0  0  0
  6  7  1  0  0  0  0
  6  8  1  0  0  0  0
  6  9  1  0  0  0  0
  7 39  1  0  0  0  0
  7 40  1  0  0  0  0
  7 41  1  0  0  0  0
  8 42  1  0  0  0  0
  8 43  1  0  0  0  0
  8 44  1  0  0  0  0
  9 45  1  0  0  0  0
  9 46  1  0  0  0  0
  9 47  1  0  0  0  0
 10 11  2  0  0  0  0
 10 12  1  0  0  0  0
 12 33  1  0  0  0  0
 13 12  1  0  0  0  0
 13 30  1  0  0  0  0
 13 48  1  0  0  0  0
 13 14  1  0  0  0  0
 14 15  2  0  0  0  0
 14 16  1  0  0  0  0
 16 49  1  0  0  0  0
 16 17  1  0  0  0  0
 17 50  1  0  0  0  0
 17 51  1  0  0  0  0
 17 18  1  0  0  0  0
 18 19  1  0  0  0  0
 18 29  2  0  0  0  0
 19 52  1  0  0  0  0
 19 20  2  0  0  0  0
 20 53  1  0  0  0  0
 20 21  1  0  0  0  0
 21 28  2  0  0  0  0
 21 22  1  0  0  0  0
 22 23  2  0  0  0  0
 22 27  1  0  0  0  0
 23 24  1  0  0  0  0
 23 25  1  0  0  0  0
 24 54  1  0  0  0  0
 24 55  1  0  0  0  0
 24 56  1  0  0  0  0
 25 26  2  0  0  0  0
 26 57  1  0  0  0  0
 26 27  1  0  0  0  0
 28 58  1  0  0  0  0
 28 29  1  0  0  0  0
 29 59  1  0  0  0  0
 31 30  1  0  0  0  0
 30 60  1  0  0  0  0
 30 61  1  0  0  0  0
 31 33  1  0  0  0  0
 31 62  1  0  0  0  0
 31 32  1  0  0  0  0
 32 63  1  0  0  0  0
 33 64  1  0  0  0  0
 33 65  1  0  0  0  0
M  ZZC   1 c1
M  ZZC   2 c2
M  ZZC   3 o1
M  ZZC   4 n1
M  ZZC   5 c3
M  ZZC   6 c4
M  ZZC   7 c5
M  ZZC   8 c6
M  ZZC   9 c7
M  ZZC  10 c8
M  ZZC  11 o2
M  ZZC  12 n2
M  ZZC  13 c9
M  ZZC  14 c10
M  ZZC  15 o3
M  ZZC  16 n3
M  ZZC  17 c11
M  ZZC  18 c12
M  ZZC  19 c13
M  ZZC  20 c14
M  ZZC  21 c15
M  ZZC  22 c16
M  ZZC  23 c17
M  ZZC  24 c18
M  ZZC  25 n4
M  ZZC  26 c19
M  ZZC  27 s1
M  ZZC  28 c20
M  ZZC  29 c21
M  ZZC  30 c22
M  ZZC  31 c23
M  ZZC  32 o4
M  ZZC  33 c24
M  ZZC  34 h11
M  ZZC  35 h12
M  ZZC  36 h13
M  ZZC  37 h01
M  ZZC  38 h31
M  ZZC  39 h51
M  ZZC  40 h52
M  ZZC  41 h53
M  ZZC  42 h61
M  ZZC  43 h62
M  ZZC  44 h63
M  ZZC  45 h71
M  ZZC  46 h72
M  ZZC  47 h73
M  ZZC  48 h91
M  ZZC  49 h02
M  ZZC  50 h111
M  ZZC  51 h112
M  ZZC  52 h131
M  ZZC  53 h141
M  ZZC  54 h181
M  ZZC  55 h182
M  ZZC  56 h183
M  ZZC  57 h191
M  ZZC  58 h201
M  ZZC  59 h211
M  ZZC  60 h221
M  ZZC  61 h222
M  ZZC  62 h231
M  ZZC  63 h41
M  ZZC  64 h241
M  ZZC  65 h242
M  ZZM   1 1
M  ZZI   1 111
M  ZZM   2 3
M  ZZI   2 121
M  ZZM   3 7
M  ZZI   3 81
M  ZZM   4 10
M  ZZI   4 211
M  ZZM   5 1
M  ZZI   5 113
M  ZZM   6 1
M  ZZI   6 110
M  ZZM   7 1
M  ZZI   7 111
M  ZZM   8 1
M  ZZI   8 111
M  ZZM   9 1
M  ZZI   9 111
M  ZZM  10 3
M  ZZI  10 121
M  ZZM  11 7
M  ZZI  11 81
M  ZZM  12 10
M  ZZI  12 192
M  ZZM  13 1
M  ZZI  13 113
M  ZZM  14 3
M  ZZI  14 121
M  ZZM  15 7
M  ZZI  15 81
M  ZZM  16 10
M  ZZI  16 211
M  ZZM  17 1
M  ZZI  17 112
M  ZZM  18 37
M  ZZI  18 124
M  ZZM  19 37
M  ZZI  19 125
M  ZZM  20 37
M  ZZI  20 125
M  ZZM  21 37
M  ZZI  21 124
M  ZZM  22 63
M  ZZI  22 104
M  ZZM  23 64
M  ZZI  23 105
M  ZZM  24 1
M  ZZI  24 111
M  ZZM  25 66
M  ZZI  25 222
M  ZZM  26 63
M  ZZI  26 104
M  ZZM  27 44
M  ZZI  27 248
M  ZZM  28 37
M  ZZI  28 125
M  ZZM  29 37
M  ZZI  29 125
M  ZZM  30 1
M  ZZI  30 112
M  ZZM  31 1
M  ZZI  31 113
M  ZZM  32 6
M  ZZI  32 60
M  ZZM  33 1
M  ZZI  33 112
M  ZZM  34 5
M  ZZI  34 1
M  ZZM  35 5
M  ZZI  35 1
M  ZZM  36 5
M  ZZI  36 1
M  ZZM  37 28
M  ZZI  37 11
M  ZZM  38 5
M  ZZI  38 1
M  ZZM  39 5
M  ZZI  39 1
M  ZZM  40 5
M  ZZI  40 1
M  ZZM  41 5
M  ZZI  41 1
M  ZZM  42 5
M  ZZI  42 1
M  ZZM  43 5
M  ZZI  43 1
M  ZZM  44 5
M  ZZI  44 1
M  ZZM  45 5
M  ZZI  45 1
M  ZZM  46 5
M  ZZI  46 1
M  ZZM  47 5
M  ZZI  47 1
M  ZZM  48 5
M  ZZI  48 1
M  ZZM  49 28
M  ZZI  49 11
M  ZZM  50 5
M  ZZI  50 1
M  ZZM  51 5
M  ZZI  51 1
M  ZZM  52 5
M  ZZI  52 1
M  ZZM  53 5
M  ZZI  53 1
M  ZZM  54 5
M  ZZI  54 1
M  ZZM  55 5
M  ZZI  55 1
M  ZZM  56 5
M  ZZI  56 1
M  ZZM  57 5
M  ZZI  57 1
M  ZZM  58 5
M  ZZI  58 1
M  ZZM  59 5
M  ZZI  59 1
M  ZZM  60 5
M  ZZI  60 1
M  ZZM  61 5
M  ZZI  61 1
M  ZZM  62 5
M  ZZI  62 1
M  ZZM  63 21
M  ZZI  63 20
M  ZZM  64 5
M  ZZI  64 1
M  ZZM  65 5
M  ZZI  65 1
M  END
> <IX>
1

> <NAME>
VHL_5G0J_7.pdb

> <Score>
-23.868865

> <Natom>
65

> <Nflex>
8

> <Hbond>
-7.844497

> <Hphob>
-6.441753

> <VwInt>
-30.396636

> <Dsolv>
21.425517

> <SolEl>
10.767356

> <Eintl>
4.524549

> <RecConf>
ND

> <projPath>
VHL_maps/

> <NAME_>
VHL_5G0J_7.pdb

$$$$
