VHL_6VS3_12.pdb
  MOLSOFT 04032206423D

 64 66  0  0  1  0  0  0  0  0999 V2000
   12.5079   -0.4161   -5.9361 C   0  0  0  0  0  0  0  0  0  0  0  0
   12.8484    0.3736   -4.7127 N   0  3  0  0  0  0  0  0  0  0  0  0
   14.1897    0.0893   -4.0473 C   0  0  1  0  0  0  0  0  0  0  0  0
   14.4638    1.1320   -2.9101 C   0  0  0  0  0  0  0  0  0  0  0  0
   13.3303    1.2295   -1.8706 C   0  0  0  0  0  0  0  0  0  0  0  0
   15.7633    0.7748   -2.1696 C   0  0  0  0  0  0  0  0  0  0  0  0
   14.6541    2.5346   -3.5147 C   0  0  0  0  0  0  0  0  0  0  0  0
   14.2710   -1.3743   -3.5527 C   0  0  0  0  0  0  0  0  0  0  0  0
   13.4528   -1.8033   -2.7520 O   0  0  0  0  0  0  0  0  0  0  0  0
   15.2758   -2.1921   -4.0775 N   0  0  0  0  0  0  0  0  0  0  0  0
   16.3834   -1.8081   -4.9475 C   0  0  2  0  0  0  0  0  0  0  0  0
   15.8971   -1.5478   -6.3777 C   0  0  0  0  0  0  0  0  0  0  0  0
   14.9289   -2.1124   -6.8703 O   0  0  0  0  0  0  0  0  0  0  0  0
   16.6191   -0.5501   -7.0019 N   0  0  0  0  0  0  0  0  0  0  0  0
   16.1747    0.1187   -8.2037 C   0  0  0  0  0  0  0  0  0  0  0  0
   15.7216    1.5303   -7.9106 C   0  0  0  0  0  0  0  0  0  0  0  0
   14.4449    1.9608   -8.2561 C   0  0  0  0  0  0  0  0  0  0  0  0
   14.0214    3.2511   -7.9867 C   0  0  0  0  0  0  0  0  0  0  0  0
   14.8623    4.1598   -7.3533 C   0  0  0  0  0  0  0  0  0  0  0  0
   14.4004    5.5096   -7.0410 C   0  0  0  0  0  0  0  0  0  0  0  0
   13.8692    6.5016   -7.8566 C   0  0  0  0  0  0  0  0  0  0  0  0
   13.6781    6.4427   -9.3197 C   0  0  0  0  0  0  0  0  0  0  0  0
   13.4850    7.6590   -7.2088 N   0  0  0  0  0  0  0  0  0  0  0  0
   13.7262    7.5437   -5.9230 C   0  0  0  0  0  0  0  0  0  0  0  0
   14.4365    6.0757   -5.4150 S   0  0  0  0  0  0  0  0  0  0  0  0
   16.1487    3.7405   -7.0257 C   0  0  0  0  0  0  0  0  0  0  0  0
   16.5723    2.4501   -7.3026 C   0  0  0  0  0  0  0  0  0  0  0  0
   17.3750   -2.9576   -4.8529 C   0  0  0  0  0  0  0  0  0  0  0  0
   16.5165   -4.1623   -4.5185 C   0  0  1  0  0  0  0  0  0  0  0  0
   17.2443   -5.1480   -3.7937 O   0  0  0  0  0  0  0  0  0  0  0  0
   15.3963   -3.5794   -3.6682 C   0  0  0  0  0  0  0  0  0  0  0  0
   12.5051   -1.4788   -5.6863 H   0  0  0  0  0  0  0  0  0  0  0  0
   13.2390   -0.1855   -6.7111 H   0  0  0  0  0  0  0  0  0  0  0  0
   11.5109   -0.1050   -6.2599 H   0  0  0  0  0  0  0  0  0  0  0  0
   12.8101    1.3633   -4.9818 H   0  0  0  0  0  0  0  0  0  0  0  0
   12.0963    0.2314   -4.0286 H   0  0  0  0  0  0  0  0  0  0  0  0
   14.9208    0.2561   -4.8384 H   0  0  0  0  0  0  0  0  0  0  0  0
   12.4014    1.6077   -2.3061 H   0  0  0  0  0  0  0  0  0  0  0  0
   13.5928    1.9229   -1.0650 H   0  0  0  0  0  0  0  0  0  0  0  0
   13.1168    0.2677   -1.3974 H   0  0  0  0  0  0  0  0  0  0  0  0
   15.6798   -0.1896   -1.6578 H   0  0  0  0  0  0  0  0  0  0  0  0
   16.0087    1.5209   -1.4075 H   0  0  0  0  0  0  0  0  0  0  0  0
   16.6168    0.6975   -2.8500 H   0  0  0  0  0  0  0  0  0  0  0  0
   14.9329    3.2657   -2.7488 H   0  0  0  0  0  0  0  0  0  0  0  0
   13.7443    2.9129   -3.9891 H   0  0  0  0  0  0  0  0  0  0  0  0
   15.4472    2.5379   -4.2677 H   0  0  0  0  0  0  0  0  0  0  0  0
   16.8371   -0.8895   -4.5613 H   0  0  0  0  0  0  0  0  0  0  0  0
   17.5125   -0.2595   -6.6208 H   0  0  0  0  0  0  0  0  0  0  0  0
   17.0146    0.1360   -8.9031 H   0  0  0  0  0  0  0  0  0  0  0  0
   15.3726   -0.4643   -8.6643 H   0  0  0  0  0  0  0  0  0  0  0  0
   13.7536    1.2812   -8.7386 H   0  0  0  0  0  0  0  0  0  0  0  0
   13.0112    3.5384   -8.2640 H   0  0  0  0  0  0  0  0  0  0  0  0
   13.6485    7.4471   -9.7494 H   0  0  0  0  0  0  0  0  0  0  0  0
   12.7354    5.9458   -9.5557 H   0  0  0  0  0  0  0  0  0  0  0  0
   14.4933    5.8982   -9.8044 H   0  0  0  0  0  0  0  0  0  0  0  0
   13.4950    8.3312   -5.2201 H   0  0  0  0  0  0  0  0  0  0  0  0
   16.8441    4.4254   -6.5491 H   0  0  0  0  0  0  0  0  0  0  0  0
   17.5858    2.1651   -7.0348 H   0  0  0  0  0  0  0  0  0  0  0  0
   17.9573   -3.1147   -5.7654 H   0  0  0  0  0  0  0  0  0  0  0  0
   18.0891   -2.7752   -4.0424 H   0  0  0  0  0  0  0  0  0  0  0  0
   16.1423   -4.6227   -5.4343 H   0  0  0  0  0  0  0  0  0  0  0  0
   18.1210   -5.2377   -4.2085 H   0  0  0  0  0  0  0  0  0  0  0  0
   15.6293   -3.6123   -2.5975 H   0  0  0  0  0  0  0  0  0  0  0  0
   14.4451   -4.1008   -3.8093 H   0  0  0  0  0  0  0  0  0  0  0  0
  1 32  1  0  0  0  0
  1 33  1  0  0  0  0
  1 34  1  0  0  0  0
  1  2  1  0  0  0  0
  2 35  1  0  0  0  0
  2 36  1  0  0  0  0
  3  2  1  0  0  0  0
  3 37  1  0  0  0  0
  3  4  1  0  0  0  0
  3  8  1  0  0  0  0
  4  5  1  0  0  0  0
  4  6  1  0  0  0  0
  4  7  1  0  0  0  0
  5 38  1  0  0  0  0
  5 39  1  0  0  0  0
  5 40  1  0  0  0  0
  6 41  1  0  0  0  0
  6 42  1  0  0  0  0
  6 43  1  0  0  0  0
  7 44  1  0  0  0  0
  7 45  1  0  0  0  0
  7 46  1  0  0  0  0
  8  9  2  0  0  0  0
  8 10  1  0  0  0  0
 10 31  1  0  0  0  0
 11 10  1  0  0  0  0
 11 28  1  0  0  0  0
 11 47  1  0  0  0  0
 11 12  1  0  0  0  0
 12 13  2  0  0  0  0
 12 14  1  0  0  0  0
 14 48  1  0  0  0  0
 14 15  1  0  0  0  0
 15 49  1  0  0  0  0
 15 50  1  0  0  0  0
 15 16  1  0  0  0  0
 16 17  1  0  0  0  0
 16 27  2  0  0  0  0
 17 51  1  0  0  0  0
 17 18  2  0  0  0  0
 18 52  1  0  0  0  0
 18 19  1  0  0  0  0
 19 26  2  0  0  0  0
 19 20  1  0  0  0  0
 20 21  2  0  0  0  0
 20 25  1  0  0  0  0
 21 22  1  0  0  0  0
 21 23  1  0  0  0  0
 22 53  1  0  0  0  0
 22 54  1  0  0  0  0
 22 55  1  0  0  0  0
 23 24  2  0  0  0  0
 24 56  1  0  0  0  0
 24 25  1  0  0  0  0
 26 57  1  0  0  0  0
 26 27  1  0  0  0  0
 27 58  1  0  0  0  0
 29 28  1  0  0  0  0
 28 59  1  0  0  0  0
 28 60  1  0  0  0  0
 29 31  1  0  0  0  0
 29 61  1  0  0  0  0
 29 30  1  0  0  0  0
 30 62  1  0  0  0  0
 31 63  1  0  0  0  0
 31 64  1  0  0  0  0
M  ZZC   1 c1
M  ZZC   2 n1
M  ZZC   3 c2
M  ZZC   4 c3
M  ZZC   5 c4
M  ZZC   6 c5
M  ZZC   7 c6
M  ZZC   8 c7
M  ZZC   9 o1
M  ZZC  10 n2
M  ZZC  11 c8
M  ZZC  12 c9
M  ZZC  13 o2
M  ZZC  14 n3
M  ZZC  15 c10
M  ZZC  16 c11
M  ZZC  17 c12
M  ZZC  18 c13
M  ZZC  19 c14
M  ZZC  20 c15
M  ZZC  21 c16
M  ZZC  22 c17
M  ZZC  23 n4
M  ZZC  24 c18
M  ZZC  25 s1
M  ZZC  26 c19
M  ZZC  27 c20
M  ZZC  28 c21
M  ZZC  29 c22
M  ZZC  30 o3
M  ZZC  31 c23
M  ZZC  32 h11
M  ZZC  33 h12
M  ZZC  34 h13
M  ZZC  35 h01
M  ZZC  36 h02
M  ZZC  37 h21
M  ZZC  38 h41
M  ZZC  39 h42
M  ZZC  40 h43
M  ZZC  41 h51
M  ZZC  42 h52
M  ZZC  43 h53
M  ZZC  44 h61
M  ZZC  45 h62
M  ZZC  46 h63
M  ZZC  47 h81
M  ZZC  48 h31
M  ZZC  49 h101
M  ZZC  50 h102
M  ZZC  51 h121
M  ZZC  52 h131
M  ZZC  53 h171
M  ZZC  54 h172
M  ZZC  55 h173
M  ZZC  56 h181
M  ZZC  57 h191
M  ZZC  58 h201
M  ZZC  59 h211
M  ZZC  60 h212
M  ZZC  61 h221
M  ZZC  62 h03
M  ZZC  63 h231
M  ZZC  64 h232
M  ZZM   1 1
M  ZZI   1 111
M  ZZM   2 34
M  ZZI   2 231
M  ZZM   3 1
M  ZZI   3 113
M  ZZM   4 1
M  ZZI   4 110
M  ZZM   5 1
M  ZZI   5 111
M  ZZM   6 1
M  ZZI   6 111
M  ZZM   7 1
M  ZZI   7 111
M  ZZM   8 3
M  ZZI   8 121
M  ZZM   9 7
M  ZZI   9 81
M  ZZM  10 10
M  ZZI  10 192
M  ZZM  11 1
M  ZZI  11 113
M  ZZM  12 3
M  ZZI  12 121
M  ZZM  13 7
M  ZZI  13 81
M  ZZM  14 10
M  ZZI  14 211
M  ZZM  15 1
M  ZZI  15 112
M  ZZM  16 37
M  ZZI  16 124
M  ZZM  17 37
M  ZZI  17 125
M  ZZM  18 37
M  ZZI  18 125
M  ZZM  19 37
M  ZZI  19 124
M  ZZM  20 63
M  ZZI  20 104
M  ZZM  21 64
M  ZZI  21 105
M  ZZM  22 1
M  ZZI  22 111
M  ZZM  23 66
M  ZZI  23 222
M  ZZM  24 63
M  ZZI  24 104
M  ZZM  25 44
M  ZZI  25 248
M  ZZM  26 37
M  ZZI  26 125
M  ZZM  27 37
M  ZZI  27 125
M  ZZM  28 1
M  ZZI  28 112
M  ZZM  29 1
M  ZZI  29 113
M  ZZM  30 6
M  ZZI  30 60
M  ZZM  31 1
M  ZZI  31 112
M  ZZM  32 5
M  ZZI  32 1
M  ZZM  33 5
M  ZZI  33 1
M  ZZM  34 5
M  ZZI  34 1
M  ZZM  35 36
M  ZZI  35 17
M  ZZM  36 36
M  ZZI  36 17
M  ZZM  37 5
M  ZZI  37 1
M  ZZM  38 5
M  ZZI  38 1
M  ZZM  39 5
M  ZZI  39 1
M  ZZM  40 5
M  ZZI  40 1
M  ZZM  41 5
M  ZZI  41 1
M  ZZM  42 5
M  ZZI  42 1
M  ZZM  43 5
M  ZZI  43 1
M  ZZM  44 5
M  ZZI  44 1
M  ZZM  45 5
M  ZZI  45 1
M  ZZM  46 5
M  ZZI  46 1
M  ZZM  47 5
M  ZZI  47 1
M  ZZM  48 28
M  ZZI  48 11
M  ZZM  49 5
M  ZZI  49 1
M  ZZM  50 5
M  ZZI  50 1
M  ZZM  51 5
M  ZZI  51 1
M  ZZM  52 5
M  ZZI  52 1
M  ZZM  53 5
M  ZZI  53 1
M  ZZM  54 5
M  ZZI  54 1
M  ZZM  55 5
M  ZZI  55 1
M  ZZM  56 5
M  ZZI  56 1
M  ZZM  57 5
M  ZZI  57 1
M  ZZM  58 5
M  ZZI  58 1
M  ZZM  59 5
M  ZZI  59 1
M  ZZM  60 5
M  ZZI  60 1
M  ZZM  61 5
M  ZZI  61 1
M  ZZM  62 21
M  ZZI  62 20
M  ZZM  63 5
M  ZZI  63 1
M  ZZM  64 5
M  ZZI  64 1
M  CHG  1   2   1
M  END
> <IX>
1

> <NAME>
VHL_6VS3_12.pdb

> <Score>
-2.443162

> <Natom>
64

> <Nflex>
8

> <Hbond>
-3.009622

> <Hphob>
-6.317336

> <VwInt>
-26.941743

> <Dsolv>
20.316764

> <SolEl>
22.461844

> <Eintl>
2.471916

> <RecConf>
ND

> <projPath>
VHL_maps/

> <NAME_>
VHL_6VS3_12.pdb

$$$$
