VHL_2GQG_11.pdb
  MOLSOFT 04032206363D

 65 67  0  0  1  0  0  0  0  0999 V2000
   19.6222   -2.4338    1.3524 C   0  0  0  0  0  0  0  0  0  0  0  0
   18.3900   -3.0252    0.7248 C   0  0  0  0  0  0  0  0  0  0  0  0
   18.0226   -4.1648    0.9663 O   0  0  0  0  0  0  0  0  0  0  0  0
   17.7343   -2.1418   -0.1074 N   0  0  0  0  0  0  0  0  0  0  0  0
   16.5274   -2.4929   -0.8595 C   0  0  1  0  0  0  0  0  0  0  0  0
   15.2561   -1.7613   -0.3299 C   0  0  0  0  0  0  0  0  0  0  0  0
   14.9016   -2.3080    1.0628 C   0  0  0  0  0  0  0  0  0  0  0  0
   15.4395   -0.2385   -0.2074 C   0  0  0  0  0  0  0  0  0  0  0  0
   14.0661   -2.0225   -1.2637 C   0  0  0  0  0  0  0  0  0  0  0  0
   16.8518   -2.1641   -2.3267 C   0  0  0  0  0  0  0  0  0  0  0  0
   17.2698   -1.0578   -2.6445 O   0  0  0  0  0  0  0  0  0  0  0  0
   16.6640   -3.1705   -3.2757 N   0  0  0  0  0  0  0  0  0  0  0  0
   16.8973   -2.9134   -4.6869 C   0  0  2  0  0  0  0  0  0  0  0  0
   15.6544   -2.3125   -5.3590 C   0  0  0  0  0  0  0  0  0  0  0  0
   14.5335   -2.3595   -4.8699 O   0  0  0  0  0  0  0  0  0  0  0  0
   15.9242   -1.7364   -6.5856 N   0  0  0  0  0  0  0  0  0  0  0  0
   14.9259   -1.0572   -7.3838 C   0  0  0  0  0  0  0  0  0  0  0  0
   15.0853    0.4429   -7.4019 C   0  0  0  0  0  0  0  0  0  0  0  0
   16.3341    1.0546   -7.4440 C   0  0  0  0  0  0  0  0  0  0  0  0
   16.4506    2.4334   -7.5003 C   0  0  0  0  0  0  0  0  0  0  0  0
   15.3278    3.2591   -7.5512 C   0  0  0  0  0  0  0  0  0  0  0  0
   15.4552    4.7185   -7.6402 C   0  0  0  0  0  0  0  0  0  0  0  0
   14.6897    5.6775   -8.3014 C   0  0  0  0  0  0  0  0  0  0  0  0
   13.4941    5.4644   -9.1440 C   0  0  0  0  0  0  0  0  0  0  0  0
   15.1107    6.9826   -8.1509 N   0  0  0  0  0  0  0  0  0  0  0  0
   16.1847    7.0184   -7.3989 C   0  0  0  0  0  0  0  0  0  0  0  0
   16.7461    5.5164   -6.8194 S   0  0  0  0  0  0  0  0  0  0  0  0
   14.0818    2.6380   -7.5238 C   0  0  0  0  0  0  0  0  0  0  0  0
   13.9620    1.2605   -7.4495 C   0  0  0  0  0  0  0  0  0  0  0  0
   17.2751   -4.2700   -5.2543 C   0  0  0  0  0  0  0  0  0  0  0  0
   16.5675   -5.2844   -4.3691 C   0  0  1  0  0  0  0  0  0  0  0  0
   17.4107   -6.4252   -4.2128 O   0  0  0  0  0  0  0  0  0  0  0  0
   16.3141   -4.5622   -3.0476 C   0  0  0  0  0  0  0  0  0  0  0  0
   20.2238   -1.9172    0.5976 H   0  0  0  0  0  0  0  0  0  0  0  0
   20.2281   -3.2303    1.7947 H   0  0  0  0  0  0  0  0  0  0  0  0
   19.3307   -1.7250    2.1330 H   0  0  0  0  0  0  0  0  0  0  0  0
   18.1416   -1.2248   -0.2664 H   0  0  0  0  0  0  0  0  0  0  0  0
   16.3739   -3.5686   -0.7515 H   0  0  0  0  0  0  0  0  0  0  0  0
   13.9867   -1.8506    1.4540 H   0  0  0  0  0  0  0  0  0  0  0  0
   15.6934   -2.1108    1.7917 H   0  0  0  0  0  0  0  0  0  0  0  0
   14.7406   -3.3898    1.0386 H   0  0  0  0  0  0  0  0  0  0  0  0
   14.5390    0.2542    0.1713 H   0  0  0  0  0  0  0  0  0  0  0  0
   15.6616    0.2100   -1.1817 H   0  0  0  0  0  0  0  0  0  0  0  0
   16.2679    0.0247    0.4558 H   0  0  0  0  0  0  0  0  0  0  0  0
   14.1983   -1.5461   -2.2392 H   0  0  0  0  0  0  0  0  0  0  0  0
   13.1325   -1.6314   -0.8463 H   0  0  0  0  0  0  0  0  0  0  0  0
   13.9317   -3.0930   -1.4341 H   0  0  0  0  0  0  0  0  0  0  0  0
   17.7206   -2.1994   -4.8055 H   0  0  0  0  0  0  0  0  0  0  0  0
   16.8576   -1.8035   -6.9723 H   0  0  0  0  0  0  0  0  0  0  0  0
   15.0313   -1.4362   -8.4031 H   0  0  0  0  0  0  0  0  0  0  0  0
   13.9300   -1.3285   -7.0195 H   0  0  0  0  0  0  0  0  0  0  0  0
   17.2429    0.4596   -7.4367 H   0  0  0  0  0  0  0  0  0  0  0  0
   17.4506    2.8543   -7.5229 H   0  0  0  0  0  0  0  0  0  0  0  0
   13.3537    6.2826   -9.8559 H   0  0  0  0  0  0  0  0  0  0  0  0
   12.5910    5.3958   -8.5310 H   0  0  0  0  0  0  0  0  0  0  0  0
   13.5900    4.5296   -9.6998 H   0  0  0  0  0  0  0  0  0  0  0  0
   16.6888    7.9429   -7.1567 H   0  0  0  0  0  0  0  0  0  0  0  0
   13.1713    3.2256   -7.5486 H   0  0  0  0  0  0  0  0  0  0  0  0
   12.9664    0.8252   -7.4297 H   0  0  0  0  0  0  0  0  0  0  0  0
   17.0049   -4.3927   -6.3039 H   0  0  0  0  0  0  0  0  0  0  0  0
   18.3593   -4.4119   -5.1976 H   0  0  0  0  0  0  0  0  0  0  0  0
   15.6309   -5.6221   -4.8149 H   0  0  0  0  0  0  0  0  0  0  0  0
   16.8709   -7.1461   -3.8430 H   0  0  0  0  0  0  0  0  0  0  0  0
   16.8938   -4.9720   -2.2204 H   0  0  0  0  0  0  0  0  0  0  0  0
   15.2549   -4.6088   -2.7743 H   0  0  0  0  0  0  0  0  0  0  0  0
  1 34  1  0  0  0  0
  1 35  1  0  0  0  0
  1 36  1  0  0  0  0
  1  2  1  0  0  0  0
  2  3  2  0  0  0  0
  2  4  1  0  0  0  0
  4 37  1  0  0  0  0
  5  4  1  0  0  0  0
  5 38  1  0  0  0  0
  5  6  1  0  0  0  0
  5 10  1  0  0  0  0
  6  7  1  0  0  0  0
  6  8  1  0  0  0  0
  6  9  1  0  0  0  0
  7 39  1  0  0  0  0
  7 40  1  0  0  0  0
  7 41  1  0  0  0  0
  8 42  1  0  0  0  0
  8 43  1  0  0  0  0
  8 44  1  0  0  0  0
  9 45  1  0  0  0  0
  9 46  1  0  0  0  0
  9 47  1  0  0  0  0
 10 11  2  0  0  0  0
 10 12  1  0  0  0  0
 12 33  1  0  0  0  0
 13 12  1  0  0  0  0
 13 30  1  0  0  0  0
 13 48  1  0  0  0  0
 13 14  1  0  0  0  0
 14 15  2  0  0  0  0
 14 16  1  0  0  0  0
 16 49  1  0  0  0  0
 16 17  1  0  0  0  0
 17 50  1  0  0  0  0
 17 51  1  0  0  0  0
 17 18  1  0  0  0  0
 18 19  1  0  0  0  0
 18 29  2  0  0  0  0
 19 52  1  0  0  0  0
 19 20  2  0  0  0  0
 20 53  1  0  0  0  0
 20 21  1  0  0  0  0
 21 28  2  0  0  0  0
 21 22  1  0  0  0  0
 22 23  2  0  0  0  0
 22 27  1  0  0  0  0
 23 24  1  0  0  0  0
 23 25  1  0  0  0  0
 24 54  1  0  0  0  0
 24 55  1  0  0  0  0
 24 56  1  0  0  0  0
 25 26  2  0  0  0  0
 26 57  1  0  0  0  0
 26 27  1  0  0  0  0
 28 58  1  0  0  0  0
 28 29  1  0  0  0  0
 29 59  1  0  0  0  0
 31 30  1  0  0  0  0
 30 60  1  0  0  0  0
 30 61  1  0  0  0  0
 31 33  1  0  0  0  0
 31 62  1  0  0  0  0
 31 32  1  0  0  0  0
 32 63  1  0  0  0  0
 33 64  1  0  0  0  0
 33 65  1  0  0  0  0
M  ZZC   1 c1
M  ZZC   2 c2
M  ZZC   3 o1
M  ZZC   4 n1
M  ZZC   5 c3
M  ZZC   6 c4
M  ZZC   7 c5
M  ZZC   8 c6
M  ZZC   9 c7
M  ZZC  10 c8
M  ZZC  11 o2
M  ZZC  12 n2
M  ZZC  13 c9
M  ZZC  14 c10
M  ZZC  15 o3
M  ZZC  16 n3
M  ZZC  17 c11
M  ZZC  18 c12
M  ZZC  19 c13
M  ZZC  20 c14
M  ZZC  21 c15
M  ZZC  22 c16
M  ZZC  23 c17
M  ZZC  24 c18
M  ZZC  25 n4
M  ZZC  26 c19
M  ZZC  27 s1
M  ZZC  28 c20
M  ZZC  29 c21
M  ZZC  30 c22
M  ZZC  31 c23
M  ZZC  32 o4
M  ZZC  33 c24
M  ZZC  34 h11
M  ZZC  35 h12
M  ZZC  36 h13
M  ZZC  37 h01
M  ZZC  38 h31
M  ZZC  39 h51
M  ZZC  40 h52
M  ZZC  41 h53
M  ZZC  42 h61
M  ZZC  43 h62
M  ZZC  44 h63
M  ZZC  45 h71
M  ZZC  46 h72
M  ZZC  47 h73
M  ZZC  48 h91
M  ZZC  49 h02
M  ZZC  50 h111
M  ZZC  51 h112
M  ZZC  52 h131
M  ZZC  53 h141
M  ZZC  54 h181
M  ZZC  55 h182
M  ZZC  56 h183
M  ZZC  57 h191
M  ZZC  58 h201
M  ZZC  59 h211
M  ZZC  60 h221
M  ZZC  61 h222
M  ZZC  62 h231
M  ZZC  63 h41
M  ZZC  64 h241
M  ZZC  65 h242
M  ZZM   1 1
M  ZZI   1 111
M  ZZM   2 3
M  ZZI   2 121
M  ZZM   3 7
M  ZZI   3 81
M  ZZM   4 10
M  ZZI   4 211
M  ZZM   5 1
M  ZZI   5 113
M  ZZM   6 1
M  ZZI   6 110
M  ZZM   7 1
M  ZZI   7 111
M  ZZM   8 1
M  ZZI   8 111
M  ZZM   9 1
M  ZZI   9 111
M  ZZM  10 3
M  ZZI  10 121
M  ZZM  11 7
M  ZZI  11 81
M  ZZM  12 10
M  ZZI  12 192
M  ZZM  13 1
M  ZZI  13 113
M  ZZM  14 3
M  ZZI  14 121
M  ZZM  15 7
M  ZZI  15 81
M  ZZM  16 10
M  ZZI  16 211
M  ZZM  17 1
M  ZZI  17 112
M  ZZM  18 37
M  ZZI  18 124
M  ZZM  19 37
M  ZZI  19 125
M  ZZM  20 37
M  ZZI  20 125
M  ZZM  21 37
M  ZZI  21 124
M  ZZM  22 63
M  ZZI  22 104
M  ZZM  23 64
M  ZZI  23 105
M  ZZM  24 1
M  ZZI  24 111
M  ZZM  25 66
M  ZZI  25 222
M  ZZM  26 63
M  ZZI  26 104
M  ZZM  27 44
M  ZZI  27 248
M  ZZM  28 37
M  ZZI  28 125
M  ZZM  29 37
M  ZZI  29 125
M  ZZM  30 1
M  ZZI  30 112
M  ZZM  31 1
M  ZZI  31 113
M  ZZM  32 6
M  ZZI  32 60
M  ZZM  33 1
M  ZZI  33 112
M  ZZM  34 5
M  ZZI  34 1
M  ZZM  35 5
M  ZZI  35 1
M  ZZM  36 5
M  ZZI  36 1
M  ZZM  37 28
M  ZZI  37 11
M  ZZM  38 5
M  ZZI  38 1
M  ZZM  39 5
M  ZZI  39 1
M  ZZM  40 5
M  ZZI  40 1
M  ZZM  41 5
M  ZZI  41 1
M  ZZM  42 5
M  ZZI  42 1
M  ZZM  43 5
M  ZZI  43 1
M  ZZM  44 5
M  ZZI  44 1
M  ZZM  45 5
M  ZZI  45 1
M  ZZM  46 5
M  ZZI  46 1
M  ZZM  47 5
M  ZZI  47 1
M  ZZM  48 5
M  ZZI  48 1
M  ZZM  49 28
M  ZZI  49 11
M  ZZM  50 5
M  ZZI  50 1
M  ZZM  51 5
M  ZZI  51 1
M  ZZM  52 5
M  ZZI  52 1
M  ZZM  53 5
M  ZZI  53 1
M  ZZM  54 5
M  ZZI  54 1
M  ZZM  55 5
M  ZZI  55 1
M  ZZM  56 5
M  ZZI  56 1
M  ZZM  57 5
M  ZZI  57 1
M  ZZM  58 5
M  ZZI  58 1
M  ZZM  59 5
M  ZZI  59 1
M  ZZM  60 5
M  ZZI  60 1
M  ZZM  61 5
M  ZZI  61 1
M  ZZM  62 5
M  ZZI  62 1
M  ZZM  63 21
M  ZZI  63 20
M  ZZM  64 5
M  ZZI  64 1
M  ZZM  65 5
M  ZZI  65 1
M  END
> <IX>
1

> <NAME>
VHL_2GQG_11.pdb

> <Score>
-7.267748

> <Natom>
65

> <Nflex>
8

> <Hbond>
-2.939958

> <Hphob>
-5.559325

> <VwInt>
-27.63283

> <Dsolv>
17.936802

> <SolEl>
15.410682

> <Eintl>
5.173787

> <RecConf>
ND

> <projPath>
VHL_maps/

> <NAME_>
VHL_2GQG_11.pdb

$$$$
