VHL_4CI3_8.pdb
  MOLSOFT 04032206383D

 65 67  0  0  1  0  0  0  0  0999 V2000
   15.8100   -6.2529   -5.4854 O   0  0  0  0  0  0  0  0  0  0  0  0
   16.8849   -5.9372   -5.0056 C   0  0  0  0  0  0  0  0  0  0  0  0
   17.1296   -4.7757   -4.2995 N   0  0  0  0  0  0  0  0  0  0  0  0
   16.1449   -3.7072   -4.0618 C   0  0  1  0  0  0  0  0  0  0  0  0
   15.8382   -3.5257   -2.5463 C   0  0  0  0  0  0  0  0  0  0  0  0
   15.3393   -4.8673   -1.9994 C   0  0  0  0  0  0  0  0  0  0  0  0
   14.7262   -2.5026   -2.2886 C   0  0  0  0  0  0  0  0  0  0  0  0
   17.0701   -3.0761   -1.7476 C   0  0  0  0  0  0  0  0  0  0  0  0
   16.7335   -2.4817   -4.7845 C   0  0  0  0  0  0  0  0  0  0  0  0
   17.9403   -2.2702   -4.7754 O   0  0  0  0  0  0  0  0  0  0  0  0
   15.8633   -1.6357   -5.4753 N   0  0  0  0  0  0  0  0  0  0  0  0
   16.3901   -0.6571   -6.4105 C   0  0  2  0  0  0  0  0  0  0  0  0
   16.8451    0.6119   -5.6897 C   0  0  0  0  0  0  0  0  0  0  0  0
   16.3894    0.9602   -4.6086 O   0  0  0  0  0  0  0  0  0  0  0  0
   17.7801    1.3387   -6.4043 N   0  0  0  0  0  0  0  0  0  0  0  0
   18.3343    2.5830   -5.9076 C   0  0  0  0  0  0  0  0  0  0  0  0
   17.4357    3.7614   -6.1869 C   0  0  0  0  0  0  0  0  0  0  0  0
   16.4122    4.0970   -5.3054 C   0  0  0  0  0  0  0  0  0  0  0  0
   15.5585    5.1517   -5.5714 C   0  0  0  0  0  0  0  0  0  0  0  0
   15.7088    5.9063   -6.7280 C   0  0  0  0  0  0  0  0  0  0  0  0
   14.7990    7.0026   -7.0203 C   0  0  0  0  0  0  0  0  0  0  0  0
   13.8967    7.1634   -8.0611 C   0  0  0  0  0  0  0  0  0  0  0  0
   13.6205    6.1918   -9.1410 C   0  0  0  0  0  0  0  0  0  0  0  0
   13.1979    8.3538   -8.0507 N   0  0  0  0  0  0  0  0  0  0  0  0
   13.5631    9.0675   -7.0090 C   0  0  0  0  0  0  0  0  0  0  0  0
   14.7399    8.3750   -5.9871 S   0  0  0  0  0  0  0  0  0  0  0  0
   16.7353    5.5812   -7.6088 C   0  0  0  0  0  0  0  0  0  0  0  0
   17.5888    4.5227   -7.3410 C   0  0  0  0  0  0  0  0  0  0  0  0
   15.2360   -0.3965   -7.3647 C   0  0  0  0  0  0  0  0  0  0  0  0
   13.9996   -0.5665   -6.4976 C   0  0  1  0  0  0  0  0  0  0  0  0
   12.9112   -1.0617   -7.2746 O   0  0  0  0  0  0  0  0  0  0  0  0
   14.4128   -1.5804   -5.4390 C   0  0  0  0  0  0  0  0  0  0  0  0
   18.0840   -6.8361   -5.1203 C   0  0  0  0  0  0  0  0  0  0  0  0
   18.0868   -4.5944   -4.0193 H   0  0  0  0  0  0  0  0  0  0  0  0
   15.2220   -4.0024   -4.5590 H   0  0  0  0  0  0  0  0  0  0  0  0
   14.4562   -5.2198   -2.5421 H   0  0  0  0  0  0  0  0  0  0  0  0
   15.0619   -4.7813   -0.9469 H   0  0  0  0  0  0  0  0  0  0  0  0
   16.0998   -5.6461   -2.0806 H   0  0  0  0  0  0  0  0  0  0  0  0
   13.8272   -2.7291   -2.8681 H   0  0  0  0  0  0  0  0  0  0  0  0
   15.0358   -1.4940   -2.5818 H   0  0  0  0  0  0  0  0  0  0  0  0
   14.4639   -2.4568   -1.2271 H   0  0  0  0  0  0  0  0  0  0  0  0
   17.4241   -2.0906   -2.0659 H   0  0  0  0  0  0  0  0  0  0  0  0
   17.8990   -3.7722   -1.8576 H   0  0  0  0  0  0  0  0  0  0  0  0
   16.8496   -3.0100   -0.6772 H   0  0  0  0  0  0  0  0  0  0  0  0
   17.2478   -1.0783   -6.9403 H   0  0  0  0  0  0  0  0  0  0  0  0
   18.1541    0.9554   -7.2677 H   0  0  0  0  0  0  0  0  0  0  0  0
   18.5165    2.4902   -4.8310 H   0  0  0  0  0  0  0  0  0  0  0  0
   19.3094    2.7226   -6.3861 H   0  0  0  0  0  0  0  0  0  0  0  0
   16.2645    3.5242   -4.3946 H   0  0  0  0  0  0  0  0  0  0  0  0
   14.7603    5.3714   -4.8680 H   0  0  0  0  0  0  0  0  0  0  0  0
   14.4852    6.0919   -9.8021 H   0  0  0  0  0  0  0  0  0  0  0  0
   12.7690    6.5093   -9.7450 H   0  0  0  0  0  0  0  0  0  0  0  0
   13.3844    5.2059   -8.7296 H   0  0  0  0  0  0  0  0  0  0  0  0
   13.1483   10.0414   -6.7972 H   0  0  0  0  0  0  0  0  0  0  0  0
   16.8811    6.1612   -8.5163 H   0  0  0  0  0  0  0  0  0  0  0  0
   18.3841    4.2948   -8.0441 H   0  0  0  0  0  0  0  0  0  0  0  0
   15.2718    0.5912   -7.8364 H   0  0  0  0  0  0  0  0  0  0  0  0
   15.2346   -1.1382   -8.1720 H   0  0  0  0  0  0  0  0  0  0  0  0
   13.7120    0.3899   -6.0451 H   0  0  0  0  0  0  0  0  0  0  0  0
   12.0833   -0.7995   -6.8344 H   0  0  0  0  0  0  0  0  0  0  0  0
   13.9803   -2.5705   -5.5797 H   0  0  0  0  0  0  0  0  0  0  0  0
   14.0939   -1.2167   -4.4628 H   0  0  0  0  0  0  0  0  0  0  0  0
   17.9800   -7.4695   -6.0062 H   0  0  0  0  0  0  0  0  0  0  0  0
   18.1394   -7.4687   -4.2314 H   0  0  0  0  0  0  0  0  0  0  0  0
   19.0045   -6.2524   -5.2190 H   0  0  0  0  0  0  0  0  0  0  0  0
  1  2  2  0  0  0  0
  2  3  1  0  0  0  0
  2 33  1  0  0  0  0
  4  3  1  0  0  0  0
  3 34  1  0  0  0  0
  4  5  1  0  0  0  0
  4 35  1  0  0  0  0
  4  9  1  0  0  0  0
  5  6  1  0  0  0  0
  5  7  1  0  0  0  0
  5  8  1  0  0  0  0
  6 36  1  0  0  0  0
  6 37  1  0  0  0  0
  6 38  1  0  0  0  0
  7 39  1  0  0  0  0
  7 40  1  0  0  0  0
  7 41  1  0  0  0  0
  8 42  1  0  0  0  0
  8 43  1  0  0  0  0
  8 44  1  0  0  0  0
  9 10  2  0  0  0  0
  9 11  1  0  0  0  0
 11 32  1  0  0  0  0
 12 11  1  0  0  0  0
 12 29  1  0  0  0  0
 12 45  1  0  0  0  0
 12 13  1  0  0  0  0
 13 14  2  0  0  0  0
 13 15  1  0  0  0  0
 15 46  1  0  0  0  0
 15 16  1  0  0  0  0
 16 47  1  0  0  0  0
 16 48  1  0  0  0  0
 16 17  1  0  0  0  0
 17 18  1  0  0  0  0
 17 28  2  0  0  0  0
 18 49  1  0  0  0  0
 18 19  2  0  0  0  0
 19 50  1  0  0  0  0
 19 20  1  0  0  0  0
 20 27  2  0  0  0  0
 20 21  1  0  0  0  0
 21 22  2  0  0  0  0
 21 26  1  0  0  0  0
 22 23  1  0  0  0  0
 22 24  1  0  0  0  0
 23 51  1  0  0  0  0
 23 52  1  0  0  0  0
 23 53  1  0  0  0  0
 24 25  2  0  0  0  0
 25 54  1  0  0  0  0
 25 26  1  0  0  0  0
 27 55  1  0  0  0  0
 27 28  1  0  0  0  0
 28 56  1  0  0  0  0
 30 29  1  0  0  0  0
 29 57  1  0  0  0  0
 29 58  1  0  0  0  0
 30 32  1  0  0  0  0
 30 59  1  0  0  0  0
 30 31  1  0  0  0  0
 31 60  1  0  0  0  0
 32 61  1  0  0  0  0
 32 62  1  0  0  0  0
 33 63  1  0  0  0  0
 33 64  1  0  0  0  0
 33 65  1  0  0  0  0
M  ZZC   1 o1
M  ZZC   2 c1
M  ZZC   3 n1
M  ZZC   4 c2
M  ZZC   5 c3
M  ZZC   6 c4
M  ZZC   7 c5
M  ZZC   8 c6
M  ZZC   9 c7
M  ZZC  10 o2
M  ZZC  11 n2
M  ZZC  12 c8
M  ZZC  13 c9
M  ZZC  14 o3
M  ZZC  15 n3
M  ZZC  16 c10
M  ZZC  17 c11
M  ZZC  18 c12
M  ZZC  19 c13
M  ZZC  20 c14
M  ZZC  21 c15
M  ZZC  22 c16
M  ZZC  23 c17
M  ZZC  24 n4
M  ZZC  25 c18
M  ZZC  26 s1
M  ZZC  27 c19
M  ZZC  28 c20
M  ZZC  29 c21
M  ZZC  30 c22
M  ZZC  31 o4
M  ZZC  32 c23
M  ZZC  33 c24
M  ZZC  34 h11
M  ZZC  35 h21
M  ZZC  36 h41
M  ZZC  37 h42
M  ZZC  38 h43
M  ZZC  39 h51
M  ZZC  40 h52
M  ZZC  41 h53
M  ZZC  42 h61
M  ZZC  43 h62
M  ZZC  44 h63
M  ZZC  45 h81
M  ZZC  46 h31
M  ZZC  47 h101
M  ZZC  48 h102
M  ZZC  49 h121
M  ZZC  50 h131
M  ZZC  51 h171
M  ZZC  52 h172
M  ZZC  53 h173
M  ZZC  54 h181
M  ZZC  55 h191
M  ZZC  56 h201
M  ZZC  57 h211
M  ZZC  58 h212
M  ZZC  59 h221
M  ZZC  60 h01
M  ZZC  61 h231
M  ZZC  62 h232
M  ZZC  63 h241
M  ZZC  64 h242
M  ZZC  65 h243
M  ZZM   1 7
M  ZZI   1 81
M  ZZM   2 3
M  ZZI   2 121
M  ZZM   3 10
M  ZZI   3 211
M  ZZM   4 1
M  ZZI   4 113
M  ZZM   5 1
M  ZZI   5 110
M  ZZM   6 1
M  ZZI   6 111
M  ZZM   7 1
M  ZZI   7 111
M  ZZM   8 1
M  ZZI   8 111
M  ZZM   9 3
M  ZZI   9 121
M  ZZM  10 7
M  ZZI  10 81
M  ZZM  11 10
M  ZZI  11 192
M  ZZM  12 1
M  ZZI  12 113
M  ZZM  13 3
M  ZZI  13 121
M  ZZM  14 7
M  ZZI  14 81
M  ZZM  15 10
M  ZZI  15 211
M  ZZM  16 1
M  ZZI  16 112
M  ZZM  17 37
M  ZZI  17 124
M  ZZM  18 37
M  ZZI  18 125
M  ZZM  19 37
M  ZZI  19 125
M  ZZM  20 37
M  ZZI  20 124
M  ZZM  21 63
M  ZZI  21 104
M  ZZM  22 64
M  ZZI  22 105
M  ZZM  23 1
M  ZZI  23 111
M  ZZM  24 66
M  ZZI  24 222
M  ZZM  25 63
M  ZZI  25 104
M  ZZM  26 44
M  ZZI  26 248
M  ZZM  27 37
M  ZZI  27 125
M  ZZM  28 37
M  ZZI  28 125
M  ZZM  29 1
M  ZZI  29 112
M  ZZM  30 1
M  ZZI  30 113
M  ZZM  31 6
M  ZZI  31 60
M  ZZM  32 1
M  ZZI  32 112
M  ZZM  33 1
M  ZZI  33 111
M  ZZM  34 28
M  ZZI  34 11
M  ZZM  35 5
M  ZZI  35 1
M  ZZM  36 5
M  ZZI  36 1
M  ZZM  37 5
M  ZZI  37 1
M  ZZM  38 5
M  ZZI  38 1
M  ZZM  39 5
M  ZZI  39 1
M  ZZM  40 5
M  ZZI  40 1
M  ZZM  41 5
M  ZZI  41 1
M  ZZM  42 5
M  ZZI  42 1
M  ZZM  43 5
M  ZZI  43 1
M  ZZM  44 5
M  ZZI  44 1
M  ZZM  45 5
M  ZZI  45 1
M  ZZM  46 28
M  ZZI  46 11
M  ZZM  47 5
M  ZZI  47 1
M  ZZM  48 5
M  ZZI  48 1
M  ZZM  49 5
M  ZZI  49 1
M  ZZM  50 5
M  ZZI  50 1
M  ZZM  51 5
M  ZZI  51 1
M  ZZM  52 5
M  ZZI  52 1
M  ZZM  53 5
M  ZZI  53 1
M  ZZM  54 5
M  ZZI  54 1
M  ZZM  55 5
M  ZZI  55 1
M  ZZM  56 5
M  ZZI  56 1
M  ZZM  57 5
M  ZZI  57 1
M  ZZM  58 5
M  ZZI  58 1
M  ZZM  59 5
M  ZZI  59 1
M  ZZM  60 21
M  ZZI  60 20
M  ZZM  61 5
M  ZZI  61 1
M  ZZM  62 5
M  ZZI  62 1
M  ZZM  63 5
M  ZZI  63 1
M  ZZM  64 5
M  ZZI  64 1
M  ZZM  65 5
M  ZZI  65 1
M  END
> <IX>
1

> <NAME>
VHL_4CI3_8.pdb

> <Score>
-5.289639

> <Natom>
65

> <Nflex>
8

> <Hbond>
-5.062928

> <Hphob>
-6.608689

> <VwInt>
-28.062825

> <Dsolv>
22.269272

> <SolEl>
22.383102

> <Eintl>
6.22569

> <RecConf>
ND

> <projPath>
VHL_maps/

> <NAME_>
VHL_4CI3_8.pdb

$$$$
