VHL_4IM0_9.pdb
  MOLSOFT 04032206403D

 65 67  0  0  1  0  0  0  0  0999 V2000
   18.4012   -6.7624   -5.3900 C   0  0  0  0  0  0  0  0  0  0  0  0
   17.1791   -5.8897   -5.2855 C   0  0  0  0  0  0  0  0  0  0  0  0
   16.0851   -6.3027   -5.6347 O   0  0  0  0  0  0  0  0  0  0  0  0
   17.4273   -4.6426   -4.7428 N   0  0  0  0  0  0  0  0  0  0  0  0
   16.4025   -3.6125   -4.5350 C   0  0  1  0  0  0  0  0  0  0  0  0
   15.8126   -3.6244   -3.0874 C   0  0  0  0  0  0  0  0  0  0  0  0
   15.3882   -5.0405   -2.6722 C   0  0  0  0  0  0  0  0  0  0  0  0
   14.5550   -2.7465   -3.0276 C   0  0  0  0  0  0  0  0  0  0  0  0
   16.8178   -3.1173   -2.0423 C   0  0  0  0  0  0  0  0  0  0  0  0
   17.0394   -2.2590   -4.9214 C   0  0  0  0  0  0  0  0  0  0  0  0
   18.1420   -1.9454   -4.4980 O   0  0  0  0  0  0  0  0  0  0  0  0
   16.3184   -1.3753   -5.7321 N   0  0  0  0  0  0  0  0  0  0  0  0
   16.8345   -0.0335   -6.0170 C   0  0  2  0  0  0  0  0  0  0  0  0
   16.7536    0.9163   -4.8176 C   0  0  0  0  0  0  0  0  0  0  0  0
   17.5999    1.7795   -4.6348 O   0  0  0  0  0  0  0  0  0  0  0  0
   15.5775    0.8355   -4.0923 N   0  0  0  0  0  0  0  0  0  0  0  0
   15.2542    1.7372   -3.0031 C   0  0  0  0  0  0  0  0  0  0  0  0
   15.0052    0.9911   -1.7192 C   0  0  0  0  0  0  0  0  0  0  0  0
   13.7128    0.7679   -1.2538 C   0  0  0  0  0  0  0  0  0  0  0  0
   13.4965    0.0554   -0.0859 C   0  0  0  0  0  0  0  0  0  0  0  0
   14.5627   -0.4483    0.6488 C   0  0  0  0  0  0  0  0  0  0  0  0
   14.3252   -1.1958    1.8742 C   0  0  0  0  0  0  0  0  0  0  0  0
   13.7781   -0.7970    3.0866 C   0  0  0  0  0  0  0  0  0  0  0  0
   13.3450    0.5700    3.4636 C   0  0  0  0  0  0  0  0  0  0  0  0
   13.6629   -1.7977    4.0321 N   0  0  0  0  0  0  0  0  0  0  0  0
   14.1360   -2.9223    3.5452 C   0  0  0  0  0  0  0  0  0  0  0  0
   14.7484   -2.8595    1.9528 S   0  0  0  0  0  0  0  0  0  0  0  0
   15.8542   -0.2214    0.1875 C   0  0  0  0  0  0  0  0  0  0  0  0
   16.0712    0.4876   -0.9817 C   0  0  0  0  0  0  0  0  0  0  0  0
   15.9515    0.5105   -7.1392 C   0  0  0  0  0  0  0  0  0  0  0  0
   15.3518   -0.7213   -7.7853 C   0  0  1  0  0  0  0  0  0  0  0  0
   16.1939   -1.1859   -8.8493 O   0  0  0  0  0  0  0  0  0  0  0  0
   15.2662   -1.7417   -6.6575 C   0  0  0  0  0  0  0  0  0  0  0  0
   19.3221   -6.1746   -5.3340 H   0  0  0  0  0  0  0  0  0  0  0  0
   18.3878   -7.2876   -6.3491 H   0  0  0  0  0  0  0  0  0  0  0  0
   18.3856   -7.4934   -4.5779 H   0  0  0  0  0  0  0  0  0  0  0  0
   18.3760   -4.4249   -4.4612 H   0  0  0  0  0  0  0  0  0  0  0  0
   15.5974   -3.8331   -5.2238 H   0  0  0  0  0  0  0  0  0  0  0  0
   14.9178   -5.0447   -1.6844 H   0  0  0  0  0  0  0  0  0  0  0  0
   16.2369   -5.7275   -2.6202 H   0  0  0  0  0  0  0  0  0  0  0  0
   14.6617   -5.4545   -3.3730 H   0  0  0  0  0  0  0  0  0  0  0  0
   14.7826   -1.7010   -3.2589 H   0  0  0  0  0  0  0  0  0  0  0  0
   14.0967   -2.7690   -2.0338 H   0  0  0  0  0  0  0  0  0  0  0  0
   13.8015   -3.0720   -3.7432 H   0  0  0  0  0  0  0  0  0  0  0  0
   16.4221   -3.2173   -1.0270 H   0  0  0  0  0  0  0  0  0  0  0  0
   17.0618   -2.0619   -2.1852 H   0  0  0  0  0  0  0  0  0  0  0  0
   17.7540   -3.6770   -2.0800 H   0  0  0  0  0  0  0  0  0  0  0  0
   17.8809   -0.1227   -6.3279 H   0  0  0  0  0  0  0  0  0  0  0  0
   14.9007    0.1240   -4.3404 H   0  0  0  0  0  0  0  0  0  0  0  0
   16.0524    2.4733   -2.8612 H   0  0  0  0  0  0  0  0  0  0  0  0
   14.3589    2.2920   -3.3024 H   0  0  0  0  0  0  0  0  0  0  0  0
   12.8578    1.1487   -1.8042 H   0  0  0  0  0  0  0  0  0  0  0  0
   12.4789   -0.1148    0.2506 H   0  0  0  0  0  0  0  0  0  0  0  0
   14.2145    1.1998    3.6713 H   0  0  0  0  0  0  0  0  0  0  0  0
   12.7222    0.5499    4.3629 H   0  0  0  0  0  0  0  0  0  0  0  0
   12.7634    1.0451    2.6685 H   0  0  0  0  0  0  0  0  0  0  0  0
   14.1434   -3.8399    4.1157 H   0  0  0  0  0  0  0  0  0  0  0  0
   16.7105   -0.5990    0.7388 H   0  0  0  0  0  0  0  0  0  0  0  0
   17.0910    0.6402   -1.3250 H   0  0  0  0  0  0  0  0  0  0  0  0
   15.1484    1.1431   -6.7450 H   0  0  0  0  0  0  0  0  0  0  0  0
   16.5312    1.1178   -7.8424 H   0  0  0  0  0  0  0  0  0  0  0  0
   14.3689   -0.5118   -8.2068 H   0  0  0  0  0  0  0  0  0  0  0  0
   17.1191   -1.0973   -8.5537 H   0  0  0  0  0  0  0  0  0  0  0  0
   15.4107   -2.7623   -7.0218 H   0  0  0  0  0  0  0  0  0  0  0  0
   14.3178   -1.6634   -6.1157 H   0  0  0  0  0  0  0  0  0  0  0  0
  1 34  1  0  0  0  0
  1 35  1  0  0  0  0
  1 36  1  0  0  0  0
  1  2  1  0  0  0  0
  2  3  2  0  0  0  0
  2  4  1  0  0  0  0
  4 37  1  0  0  0  0
  5  4  1  0  0  0  0
  5 38  1  0  0  0  0
  5  6  1  0  0  0  0
  5 10  1  0  0  0  0
  6  7  1  0  0  0  0
  6  8  1  0  0  0  0
  6  9  1  0  0  0  0
  7 39  1  0  0  0  0
  7 40  1  0  0  0  0
  7 41  1  0  0  0  0
  8 42  1  0  0  0  0
  8 43  1  0  0  0  0
  8 44  1  0  0  0  0
  9 45  1  0  0  0  0
  9 46  1  0  0  0  0
  9 47  1  0  0  0  0
 10 11  2  0  0  0  0
 10 12  1  0  0  0  0
 12 33  1  0  0  0  0
 13 12  1  0  0  0  0
 13 30  1  0  0  0  0
 13 48  1  0  0  0  0
 13 14  1  0  0  0  0
 14 15  2  0  0  0  0
 14 16  1  0  0  0  0
 16 49  1  0  0  0  0
 16 17  1  0  0  0  0
 17 50  1  0  0  0  0
 17 51  1  0  0  0  0
 17 18  1  0  0  0  0
 18 19  1  0  0  0  0
 18 29  2  0  0  0  0
 19 52  1  0  0  0  0
 19 20  2  0  0  0  0
 20 53  1  0  0  0  0
 20 21  1  0  0  0  0
 21 28  2  0  0  0  0
 21 22  1  0  0  0  0
 22 23  2  0  0  0  0
 22 27  1  0  0  0  0
 23 24  1  0  0  0  0
 23 25  1  0  0  0  0
 24 54  1  0  0  0  0
 24 55  1  0  0  0  0
 24 56  1  0  0  0  0
 25 26  2  0  0  0  0
 26 57  1  0  0  0  0
 26 27  1  0  0  0  0
 28 58  1  0  0  0  0
 28 29  1  0  0  0  0
 29 59  1  0  0  0  0
 31 30  1  0  0  0  0
 30 60  1  0  0  0  0
 30 61  1  0  0  0  0
 31 33  1  0  0  0  0
 31 62  1  0  0  0  0
 31 32  1  0  0  0  0
 32 63  1  0  0  0  0
 33 64  1  0  0  0  0
 33 65  1  0  0  0  0
M  ZZC   1 c1
M  ZZC   2 c2
M  ZZC   3 o1
M  ZZC   4 n1
M  ZZC   5 c3
M  ZZC   6 c4
M  ZZC   7 c5
M  ZZC   8 c6
M  ZZC   9 c7
M  ZZC  10 c8
M  ZZC  11 o2
M  ZZC  12 n2
M  ZZC  13 c9
M  ZZC  14 c10
M  ZZC  15 o3
M  ZZC  16 n3
M  ZZC  17 c11
M  ZZC  18 c12
M  ZZC  19 c13
M  ZZC  20 c14
M  ZZC  21 c15
M  ZZC  22 c16
M  ZZC  23 c17
M  ZZC  24 c18
M  ZZC  25 n4
M  ZZC  26 c19
M  ZZC  27 s1
M  ZZC  28 c20
M  ZZC  29 c21
M  ZZC  30 c22
M  ZZC  31 c23
M  ZZC  32 o4
M  ZZC  33 c24
M  ZZC  34 h11
M  ZZC  35 h12
M  ZZC  36 h13
M  ZZC  37 h01
M  ZZC  38 h31
M  ZZC  39 h51
M  ZZC  40 h52
M  ZZC  41 h53
M  ZZC  42 h61
M  ZZC  43 h62
M  ZZC  44 h63
M  ZZC  45 h71
M  ZZC  46 h72
M  ZZC  47 h73
M  ZZC  48 h91
M  ZZC  49 h02
M  ZZC  50 h111
M  ZZC  51 h112
M  ZZC  52 h131
M  ZZC  53 h141
M  ZZC  54 h181
M  ZZC  55 h182
M  ZZC  56 h183
M  ZZC  57 h191
M  ZZC  58 h201
M  ZZC  59 h211
M  ZZC  60 h221
M  ZZC  61 h222
M  ZZC  62 h231
M  ZZC  63 h41
M  ZZC  64 h241
M  ZZC  65 h242
M  ZZM   1 1
M  ZZI   1 111
M  ZZM   2 3
M  ZZI   2 121
M  ZZM   3 7
M  ZZI   3 81
M  ZZM   4 10
M  ZZI   4 211
M  ZZM   5 1
M  ZZI   5 113
M  ZZM   6 1
M  ZZI   6 110
M  ZZM   7 1
M  ZZI   7 111
M  ZZM   8 1
M  ZZI   8 111
M  ZZM   9 1
M  ZZI   9 111
M  ZZM  10 3
M  ZZI  10 121
M  ZZM  11 7
M  ZZI  11 81
M  ZZM  12 10
M  ZZI  12 192
M  ZZM  13 1
M  ZZI  13 113
M  ZZM  14 3
M  ZZI  14 121
M  ZZM  15 7
M  ZZI  15 81
M  ZZM  16 10
M  ZZI  16 211
M  ZZM  17 1
M  ZZI  17 112
M  ZZM  18 37
M  ZZI  18 124
M  ZZM  19 37
M  ZZI  19 125
M  ZZM  20 37
M  ZZI  20 125
M  ZZM  21 37
M  ZZI  21 124
M  ZZM  22 63
M  ZZI  22 104
M  ZZM  23 64
M  ZZI  23 105
M  ZZM  24 1
M  ZZI  24 111
M  ZZM  25 66
M  ZZI  25 222
M  ZZM  26 63
M  ZZI  26 104
M  ZZM  27 44
M  ZZI  27 248
M  ZZM  28 37
M  ZZI  28 125
M  ZZM  29 37
M  ZZI  29 125
M  ZZM  30 1
M  ZZI  30 112
M  ZZM  31 1
M  ZZI  31 113
M  ZZM  32 6
M  ZZI  32 60
M  ZZM  33 1
M  ZZI  33 112
M  ZZM  34 5
M  ZZI  34 1
M  ZZM  35 5
M  ZZI  35 1
M  ZZM  36 5
M  ZZI  36 1
M  ZZM  37 28
M  ZZI  37 11
M  ZZM  38 5
M  ZZI  38 1
M  ZZM  39 5
M  ZZI  39 1
M  ZZM  40 5
M  ZZI  40 1
M  ZZM  41 5
M  ZZI  41 1
M  ZZM  42 5
M  ZZI  42 1
M  ZZM  43 5
M  ZZI  43 1
M  ZZM  44 5
M  ZZI  44 1
M  ZZM  45 5
M  ZZI  45 1
M  ZZM  46 5
M  ZZI  46 1
M  ZZM  47 5
M  ZZI  47 1
M  ZZM  48 5
M  ZZI  48 1
M  ZZM  49 28
M  ZZI  49 11
M  ZZM  50 5
M  ZZI  50 1
M  ZZM  51 5
M  ZZI  51 1
M  ZZM  52 5
M  ZZI  52 1
M  ZZM  53 5
M  ZZI  53 1
M  ZZM  54 5
M  ZZI  54 1
M  ZZM  55 5
M  ZZI  55 1
M  ZZM  56 5
M  ZZI  56 1
M  ZZM  57 5
M  ZZI  57 1
M  ZZM  58 5
M  ZZI  58 1
M  ZZM  59 5
M  ZZI  59 1
M  ZZM  60 5
M  ZZI  60 1
M  ZZM  61 5
M  ZZI  61 1
M  ZZM  62 5
M  ZZI  62 1
M  ZZM  63 21
M  ZZI  63 20
M  ZZM  64 5
M  ZZI  64 1
M  ZZM  65 5
M  ZZI  65 1
M  END
> <IX>
1

> <NAME>
VHL_4IM0_9.pdb

> <Score>
-28.761857

> <Natom>
65

> <Nflex>
8

> <Hbond>
-7.573304

> <Hphob>
-6.757245

> <VwInt>
-28.140463

> <Dsolv>
16.125997

> <SolEl>
6.389043

> <Eintl>
3.258587

> <RecConf>
ND

> <projPath>
VHL_maps/

> <NAME_>
VHL_4IM0_9.pdb

$$$$
