VHL_6SFO_2.pdb
  MOLSOFT 04032206433D

 71 75  0  0  1  0  0  0  0  0999 V2000
   17.2233   -0.0085   -7.0870 O   0  0  0  0  0  0  0  0  0  0  0  0
   16.1342    0.8359   -7.1536 C   0  0  0  0  0  0  0  0  0  0  0  0
   14.8663    0.2826   -7.0379 C   0  0  0  0  0  0  0  0  0  0  0  0
   14.6377   -1.2001   -6.8862 C   0  0  0  0  0  0  0  0  0  0  0  0
   15.6583   -1.8801   -6.1113 N   0  0  0  0  0  0  0  0  0  0  0  0
   15.3897   -2.5473   -4.9314 C   0  0  0  0  0  0  0  0  0  0  0  0
   14.2717   -2.5898   -4.4351 O   0  0  0  0  0  0  0  0  0  0  0  0
   16.6182   -3.2183   -4.2881 C   0  0  1  0  0  0  0  0  0  0  0  0
   16.2201   -3.8969   -3.0608 N   0  0  0  0  0  0  0  0  0  0  0  0
   16.0440   -3.3572   -1.7876 C   0  0  0  0  0  0  0  0  0  0  0  0
   15.3824   -3.9360   -0.9363 O   0  0  0  0  0  0  0  0  0  0  0  0
   16.7071   -2.0056   -1.4879 C   0  0  2  0  0  0  0  0  0  0  0  0
   17.1115   -1.8946    0.0057 C   0  0  0  0  0  0  0  0  0  0  0  0
   17.7428   -0.5348    0.3152 C   0  0  0  0  0  0  0  0  0  0  0  0
   18.0963   -2.9900    0.4194 C   0  0  0  0  0  0  0  0  0  0  0  0
   15.8056   -0.9149   -1.8925 N   0  0  0  0  0  0  0  0  0  0  0  0
   16.1335    0.0648   -2.8112 C   0  0  0  0  0  0  0  0  0  0  0  0
   17.1369    0.1733   -3.5021 O   0  0  0  0  0  0  0  0  0  0  0  0
   15.0368    1.0365   -2.7925 C   0  0  0  0  0  0  0  0  0  0  0  0
   14.1061    0.6162   -1.8824 C   0  0  0  0  0  0  0  0  0  0  0  0
   13.0069    1.4078   -1.5994 C   0  0  0  0  0  0  0  0  0  0  0  0
   12.8804    2.6156   -2.2732 C   0  0  0  0  0  0  0  0  0  0  0  0
   13.8229    3.0190   -3.2159 C   0  0  0  0  0  0  0  0  0  0  0  0
   14.9298    2.2276   -3.4865 C   0  0  0  0  0  0  0  0  0  0  0  0
   14.4972   -0.6919   -1.2948 C   0  0  0  0  0  0  0  0  0  0  0  0
   15.8599   -5.2690   -3.3305 C   0  0  0  0  0  0  0  0  0  0  0  0
   16.5248   -5.6229   -4.6590 C   0  0  2  0  0  0  0  0  0  0  0  0
   17.5129   -6.6402   -4.4964 O   0  0  0  0  0  0  0  0  0  0  0  0
   17.1900   -4.3400   -5.1484 C   0  0  0  0  0  0  0  0  0  0  0  0
   13.7856    1.1496   -7.1465 C   0  0  0  0  0  0  0  0  0  0  0  0
   13.9787    2.5084   -7.3379 C   0  0  0  0  0  0  0  0  0  0  0  0
   15.2524    3.0658   -7.4260 C   0  0  0  0  0  0  0  0  0  0  0  0
   15.4462    4.5086   -7.6064 C   0  0  0  0  0  0  0  0  0  0  0  0
   14.7159    5.4623   -8.3127 C   0  0  0  0  0  0  0  0  0  0  0  0
   13.4982    5.2591   -9.1256 C   0  0  0  0  0  0  0  0  0  0  0  0
   15.2005    6.7518   -8.2450 N   0  0  0  0  0  0  0  0  0  0  0  0
   16.2846    6.7819   -7.5080 C   0  0  0  0  0  0  0  0  0  0  0  0
   16.7817    5.2924   -6.8444 S   0  0  0  0  0  0  0  0  0  0  0  0
   16.3367    2.1958   -7.3308 C   0  0  0  0  0  0  0  0  0  0  0  0
   18.0323    0.5235   -7.1791 H   0  0  0  0  0  0  0  0  0  0  0  0
   13.6576   -1.3804   -6.4330 H   0  0  0  0  0  0  0  0  0  0  0  0
   14.6415   -1.6613   -7.8777 H   0  0  0  0  0  0  0  0  0  0  0  0
   16.6088   -1.8296   -6.4729 H   0  0  0  0  0  0  0  0  0  0  0  0
   17.3686   -2.4474   -4.0983 H   0  0  0  0  0  0  0  0  0  0  0  0
   17.6229   -1.9291   -2.0828 H   0  0  0  0  0  0  0  0  0  0  0  0
   16.2239   -2.0032    0.6387 H   0  0  0  0  0  0  0  0  0  0  0  0
   18.0675   -0.4822    1.3589 H   0  0  0  0  0  0  0  0  0  0  0  0
   17.0372    0.2858    0.1591 H   0  0  0  0  0  0  0  0  0  0  0  0
   18.6188   -0.3498   -0.3153 H   0  0  0  0  0  0  0  0  0  0  0  0
   18.3361   -2.9167    1.4844 H   0  0  0  0  0  0  0  0  0  0  0  0
   19.0337   -2.9034   -0.1331 H   0  0  0  0  0  0  0  0  0  0  0  0
   17.6983   -3.9933    0.2501 H   0  0  0  0  0  0  0  0  0  0  0  0
   12.2766    1.1057   -0.8572 H   0  0  0  0  0  0  0  0  0  0  0  0
   12.0382    3.2611   -2.0508 H   0  0  0  0  0  0  0  0  0  0  0  0
   13.7020    3.9674   -3.7307 H   0  0  0  0  0  0  0  0  0  0  0  0
   15.6893    2.5412   -4.1953 H   0  0  0  0  0  0  0  0  0  0  0  0
   13.8117   -1.4932   -1.5920 H   0  0  0  0  0  0  0  0  0  0  0  0
   14.5803   -0.6256   -0.2055 H   0  0  0  0  0  0  0  0  0  0  0  0
   16.1677   -5.9097   -2.5004 H   0  0  0  0  0  0  0  0  0  0  0  0
   14.7687   -5.3073   -3.4068 H   0  0  0  0  0  0  0  0  0  0  0  0
   15.7997   -6.0044   -5.3802 H   0  0  0  0  0  0  0  0  0  0  0  0
   17.0569   -7.4391   -4.1742 H   0  0  0  0  0  0  0  0  0  0  0  0
   17.0250   -4.1898   -6.2174 H   0  0  0  0  0  0  0  0  0  0  0  0
   18.2740   -4.4021   -5.0132 H   0  0  0  0  0  0  0  0  0  0  0  0
   12.7691    0.7700   -7.0820 H   0  0  0  0  0  0  0  0  0  0  0  0
   13.1005    3.1389   -7.4009 H   0  0  0  0  0  0  0  0  0  0  0  0
   13.3845    6.0595   -9.8619 H   0  0  0  0  0  0  0  0  0  0  0  0
   12.6145    5.2749   -8.4851 H   0  0  0  0  0  0  0  0  0  0  0  0
   13.5254    4.3064   -9.6632 H   0  0  0  0  0  0  0  0  0  0  0  0
   16.8345    7.6944   -7.3274 H   0  0  0  0  0  0  0  0  0  0  0  0
   17.3521    2.5706   -7.4019 H   0  0  0  0  0  0  0  0  0  0  0  0
  1 40  1  0  0  0  0
  1  2  1  0  0  0  0
  2  3  1  0  0  0  0
  2 39  2  0  0  0  0
  3 30  2  0  0  0  0
  3  4  1  0  0  0  0
  4 41  1  0  0  0  0
  4 42  1  0  0  0  0
  4  5  1  0  0  0  0
  5 43  1  0  0  0  0
  5  6  1  0  0  0  0
  6  7  2  0  0  0  0
  8  6  1  0  0  0  0
  8 44  1  0  0  0  0
  8 29  1  0  0  0  0
  8  9  1  0  0  0  0
  9 26  1  0  0  0  0
  9 10  1  0  0  0  0
 10 11  2  0  0  0  0
 12 10  1  0  0  0  0
 12 45  1  0  0  0  0
 12 13  1  0  0  0  0
 12 16  1  0  0  0  0
 13 46  1  0  0  0  0
 13 14  1  0  0  0  0
 13 15  1  0  0  0  0
 14 47  1  0  0  0  0
 14 48  1  0  0  0  0
 14 49  1  0  0  0  0
 15 50  1  0  0  0  0
 15 51  1  0  0  0  0
 15 52  1  0  0  0  0
 16 17  1  0  0  0  0
 16 25  1  0  0  0  0
 17 18  2  0  0  0  0
 17 19  1  0  0  0  0
 19 20  2  0  0  0  0
 19 24  1  0  0  0  0
 20 25  1  0  0  0  0
 20 21  1  0  0  0  0
 21 53  1  0  0  0  0
 21 22  2  0  0  0  0
 22 54  1  0  0  0  0
 22 23  1  0  0  0  0
 23 55  1  0  0  0  0
 23 24  2  0  0  0  0
 24 56  1  0  0  0  0
 25 57  1  0  0  0  0
 25 58  1  0  0  0  0
 27 26  1  0  0  0  0
 26 59  1  0  0  0  0
 26 60  1  0  0  0  0
 27 29  1  0  0  0  0
 27 61  1  0  0  0  0
 27 28  1  0  0  0  0
 28 62  1  0  0  0  0
 29 63  1  0  0  0  0
 29 64  1  0  0  0  0
 30 65  1  0  0  0  0
 30 31  1  0  0  0  0
 31 66  1  0  0  0  0
 31 32  2  0  0  0  0
 32 39  1  0  0  0  0
 32 33  1  0  0  0  0
 33 34  2  0  0  0  0
 33 38  1  0  0  0  0
 34 35  1  0  0  0  0
 34 36  1  0  0  0  0
 35 67  1  0  0  0  0
 35 68  1  0  0  0  0
 35 69  1  0  0  0  0
 36 37  2  0  0  0  0
 37 70  1  0  0  0  0
 37 38  1  0  0  0  0
 39 71  1  0  0  0  0
M  ZZC   1 o1
M  ZZC   2 c1
M  ZZC   3 c2
M  ZZC   4 c3
M  ZZC   5 n1
M  ZZC   6 c4
M  ZZC   7 o2
M  ZZC   8 c5
M  ZZC   9 n2
M  ZZC  10 c6
M  ZZC  11 o3
M  ZZC  12 c7
M  ZZC  13 c8
M  ZZC  14 c9
M  ZZC  15 c10
M  ZZC  16 n3
M  ZZC  17 c11
M  ZZC  18 o4
M  ZZC  19 c12
M  ZZC  20 c13
M  ZZC  21 c14
M  ZZC  22 c15
M  ZZC  23 c16
M  ZZC  24 c17
M  ZZC  25 c18
M  ZZC  26 c19
M  ZZC  27 c20
M  ZZC  28 o5
M  ZZC  29 c21
M  ZZC  30 c22
M  ZZC  31 c23
M  ZZC  32 c24
M  ZZC  33 c25
M  ZZC  34 c26
M  ZZC  35 c27
M  ZZC  36 n4
M  ZZC  37 c28
M  ZZC  38 s1
M  ZZC  39 c29
M  ZZC  40 h11
M  ZZC  41 h31
M  ZZC  42 h32
M  ZZC  43 h01
M  ZZC  44 h51
M  ZZC  45 h71
M  ZZC  46 h81
M  ZZC  47 h91
M  ZZC  48 h92
M  ZZC  49 h93
M  ZZC  50 h101
M  ZZC  51 h102
M  ZZC  52 h103
M  ZZC  53 h141
M  ZZC  54 h151
M  ZZC  55 h161
M  ZZC  56 h171
M  ZZC  57 h181
M  ZZC  58 h182
M  ZZC  59 h191
M  ZZC  60 h192
M  ZZC  61 h201
M  ZZC  62 h02
M  ZZC  63 h211
M  ZZC  64 h212
M  ZZC  65 h221
M  ZZC  66 h231
M  ZZC  67 h271
M  ZZC  68 h272
M  ZZC  69 h273
M  ZZC  70 h281
M  ZZC  71 h291
M  ZZM   1 6
M  ZZI   1 62
M  ZZM   2 37
M  ZZI   2 124
M  ZZM   3 37
M  ZZI   3 124
M  ZZM   4 1
M  ZZI   4 112
M  ZZM   5 10
M  ZZI   5 211
M  ZZM   6 3
M  ZZI   6 121
M  ZZM   7 7
M  ZZI   7 81
M  ZZM   8 1
M  ZZI   8 113
M  ZZM   9 10
M  ZZI   9 192
M  ZZM  10 3
M  ZZI  10 121
M  ZZM  11 7
M  ZZI  11 81
M  ZZM  12 1
M  ZZI  12 113
M  ZZM  13 1
M  ZZI  13 113
M  ZZM  14 1
M  ZZI  14 111
M  ZZM  15 1
M  ZZI  15 111
M  ZZM  16 10
M  ZZI  16 192
M  ZZM  17 3
M  ZZI  17 121
M  ZZM  18 7
M  ZZI  18 81
M  ZZM  19 37
M  ZZI  19 124
M  ZZM  20 37
M  ZZI  20 124
M  ZZM  21 37
M  ZZI  21 125
M  ZZM  22 37
M  ZZI  22 125
M  ZZM  23 37
M  ZZI  23 125
M  ZZM  24 37
M  ZZI  24 125
M  ZZM  25 1
M  ZZI  25 112
M  ZZM  26 1
M  ZZI  26 112
M  ZZM  27 1
M  ZZI  27 113
M  ZZM  28 6
M  ZZI  28 60
M  ZZM  29 1
M  ZZI  29 112
M  ZZM  30 37
M  ZZI  30 125
M  ZZM  31 37
M  ZZI  31 125
M  ZZM  32 37
M  ZZI  32 124
M  ZZM  33 63
M  ZZI  33 104
M  ZZM  34 64
M  ZZI  34 105
M  ZZM  35 1
M  ZZI  35 111
M  ZZM  36 66
M  ZZI  36 222
M  ZZM  37 63
M  ZZI  37 104
M  ZZM  38 44
M  ZZI  38 248
M  ZZM  39 37
M  ZZI  39 125
M  ZZM  40 29
M  ZZI  40 27
M  ZZM  41 5
M  ZZI  41 1
M  ZZM  42 5
M  ZZI  42 1
M  ZZM  43 28
M  ZZI  43 11
M  ZZM  44 5
M  ZZI  44 1
M  ZZM  45 5
M  ZZI  45 1
M  ZZM  46 5
M  ZZI  46 1
M  ZZM  47 5
M  ZZI  47 1
M  ZZM  48 5
M  ZZI  48 1
M  ZZM  49 5
M  ZZI  49 1
M  ZZM  50 5
M  ZZI  50 1
M  ZZM  51 5
M  ZZI  51 1
M  ZZM  52 5
M  ZZI  52 1
M  ZZM  53 5
M  ZZI  53 1
M  ZZM  54 5
M  ZZI  54 1
M  ZZM  55 5
M  ZZI  55 1
M  ZZM  56 5
M  ZZI  56 1
M  ZZM  57 5
M  ZZI  57 1
M  ZZM  58 5
M  ZZI  58 1
M  ZZM  59 5
M  ZZI  59 1
M  ZZM  60 5
M  ZZI  60 1
M  ZZM  61 5
M  ZZI  61 1
M  ZZM  62 21
M  ZZI  62 20
M  ZZM  63 5
M  ZZI  63 1
M  ZZM  64 5
M  ZZI  64 1
M  ZZM  65 5
M  ZZI  65 1
M  ZZM  66 5
M  ZZI  66 1
M  ZZM  67 5
M  ZZI  67 1
M  ZZM  68 5
M  ZZI  68 1
M  ZZM  69 5
M  ZZI  69 1
M  ZZM  70 5
M  ZZI  70 1
M  ZZM  71 5
M  ZZI  71 1
M  END
> <IX>
1

> <NAME>
VHL_6SFO_2.pdb

> <Score>
-3.332892

> <Natom>
71

> <Nflex>
8

> <Hbond>
-2.751181

> <Hphob>
-5.97856

> <VwInt>
-31.111639

> <Dsolv>
21.638651

> <SolEl>
22.283027

> <Eintl>
5.015141

> <RecConf>
ND

> <projPath>
VHL_maps/

> <NAME_>
VHL_6SFO_2.pdb

$$$$
