VHL_5ML8_4.pdb
  MOLSOFT 04032206403D

 62 64  0  0  1  0  0  0  0  0999 V2000
   18.1160   -2.6357    0.0689 C   0  0  0  0  0  0  0  0  0  0  0  0
   16.8844   -2.6330   -0.7924 C   0  0  0  0  0  0  0  0  0  0  0  0
   15.7666   -2.4774   -0.3236 O   0  0  0  0  0  0  0  0  0  0  0  0
   17.1579   -2.8485   -2.1286 N   0  0  0  0  0  0  0  0  0  0  0  0
   16.1116   -2.8733   -3.1517 C   0  0  1  0  0  0  0  0  0  0  0  0
   16.6518   -2.1139   -4.3659 C   0  0  0  0  0  0  0  0  0  0  0  0
   17.8554   -2.0479   -4.5867 O   0  0  0  0  0  0  0  0  0  0  0  0
   15.7125   -1.5221   -5.2081 N   0  0  0  0  0  0  0  0  0  0  0  0
   16.1397   -0.7576   -6.3646 C   0  0  2  0  0  0  0  0  0  0  0  0
   16.6855    0.5871   -5.8768 C   0  0  0  0  0  0  0  0  0  0  0  0
   16.2850    1.1287   -4.8549 O   0  0  0  0  0  0  0  0  0  0  0  0
   17.6529    1.1299   -6.7008 N   0  0  0  0  0  0  0  0  0  0  0  0
   18.3837    2.3316   -6.3448 C   0  0  0  0  0  0  0  0  0  0  0  0
   17.7179    3.5926   -6.8338 C   0  0  0  0  0  0  0  0  0  0  0  0
   16.4875    3.9923   -6.3238 C   0  0  0  0  0  0  0  0  0  0  0  0
   15.8725    5.1453   -6.7644 C   0  0  0  0  0  0  0  0  0  0  0  0
   16.4701    5.9472   -7.7271 C   0  0  0  0  0  0  0  0  0  0  0  0
   15.7966    7.1565   -8.1799 C   0  0  0  0  0  0  0  0  0  0  0  0
   14.4792    7.3602   -8.5705 C   0  0  0  0  0  0  0  0  0  0  0  0
   13.4064    6.3455   -8.6824 C   0  0  0  0  0  0  0  0  0  0  0  0
   14.1600    8.6631   -8.8793 N   0  0  0  0  0  0  0  0  0  0  0  0
   15.2264    9.4221   -8.7655 C   0  0  0  0  0  0  0  0  0  0  0  0
   16.6534    8.6473   -8.2509 S   0  0  0  0  0  0  0  0  0  0  0  0
   17.7121    5.5636   -8.2276 C   0  0  0  0  0  0  0  0  0  0  0  0
   18.3275    4.4034   -7.7860 C   0  0  0  0  0  0  0  0  0  0  0  0
   14.8855   -0.6094   -7.2101 C   0  0  0  0  0  0  0  0  0  0  0  0
   13.7452   -0.6355   -6.2007 C   0  0  1  0  0  0  0  0  0  0  0  0
   12.5788   -1.2342   -6.7678 O   0  0  0  0  0  0  0  0  0  0  0  0
   14.2688   -1.4929   -5.0564 C   0  0  0  0  0  0  0  0  0  0  0  0
   15.6541   -4.3003   -3.5214 C   0  0  0  0  0  0  0  0  0  0  0  0
   15.2074   -5.0661   -2.2866 C   0  0  0  0  0  0  0  0  0  0  0  0
   16.7000   -5.1099   -4.2914 C   0  0  0  0  0  0  0  0  0  0  0  0
   18.9045   -2.0345   -0.3946 H   0  0  0  0  0  0  0  0  0  0  0  0
   18.4654   -3.6635    0.2014 H   0  0  0  0  0  0  0  0  0  0  0  0
   17.8816   -2.2075    1.0477 H   0  0  0  0  0  0  0  0  0  0  0  0
   18.1225   -2.9295   -2.4364 H   0  0  0  0  0  0  0  0  0  0  0  0
   15.2582   -2.3220   -2.7446 H   0  0  0  0  0  0  0  0  0  0  0  0
   16.9270   -1.2972   -6.8999 H   0  0  0  0  0  0  0  0  0  0  0  0
   17.9523    0.6173   -7.5236 H   0  0  0  0  0  0  0  0  0  0  0  0
   18.5076    2.3757   -5.2571 H   0  0  0  0  0  0  0  0  0  0  0  0
   19.3845    2.2310   -6.7780 H   0  0  0  0  0  0  0  0  0  0  0  0
   15.9886    3.4078   -5.5588 H   0  0  0  0  0  0  0  0  0  0  0  0
   14.9157    5.4194   -6.3295 H   0  0  0  0  0  0  0  0  0  0  0  0
   12.6186    6.6868   -9.3573 H   0  0  0  0  0  0  0  0  0  0  0  0
   12.9512    6.1580   -7.7066 H   0  0  0  0  0  0  0  0  0  0  0  0
   13.7881    5.4001   -9.0790 H   0  0  0  0  0  0  0  0  0  0  0  0
   15.2130   10.4800   -8.9818 H   0  0  0  0  0  0  0  0  0  0  0  0
   18.2131    6.1644   -8.9817 H   0  0  0  0  0  0  0  0  0  0  0  0
   19.2986    4.1381   -8.1937 H   0  0  0  0  0  0  0  0  0  0  0  0
   14.8748    0.3016   -7.8177 H   0  0  0  0  0  0  0  0  0  0  0  0
   14.7950   -1.4573   -7.8982 H   0  0  0  0  0  0  0  0  0  0  0  0
   13.4969    0.3724   -5.8492 H   0  0  0  0  0  0  0  0  0  0  0  0
   12.2521   -0.6512   -7.4769 H   0  0  0  0  0  0  0  0  0  0  0  0
   13.8736   -2.5108   -5.0877 H   0  0  0  0  0  0  0  0  0  0  0  0
   14.0087   -1.0610   -4.0849 H   0  0  0  0  0  0  0  0  0  0  0  0
   14.7808   -4.2179   -4.1682 H   0  0  0  0  0  0  0  0  0  0  0  0
   16.0570   -5.3016   -1.6450 H   0  0  0  0  0  0  0  0  0  0  0  0
   14.7278   -6.0039   -2.5662 H   0  0  0  0  0  0  0  0  0  0  0  0
   14.4888   -4.4896   -1.7005 H   0  0  0  0  0  0  0  0  0  0  0  0
   16.9429   -4.6451   -5.2512 H   0  0  0  0  0  0  0  0  0  0  0  0
   16.3307   -6.1165   -4.5097 H   0  0  0  0  0  0  0  0  0  0  0  0
   17.6272   -5.2153   -3.7251 H   0  0  0  0  0  0  0  0  0  0  0  0
  1 33  1  0  0  0  0
  1 34  1  0  0  0  0
  1 35  1  0  0  0  0
  1  2  1  0  0  0  0
  2  3  2  0  0  0  0
  2  4  1  0  0  0  0
  4 36  1  0  0  0  0
  5  4  1  0  0  0  0
  5 37  1  0  0  0  0
  5 30  1  0  0  0  0
  5  6  1  0  0  0  0
  6  7  2  0  0  0  0
  6  8  1  0  0  0  0
  8 29  1  0  0  0  0
  9  8  1  0  0  0  0
  9 26  1  0  0  0  0
  9 38  1  0  0  0  0
  9 10  1  0  0  0  0
 10 11  2  0  0  0  0
 10 12  1  0  0  0  0
 12 39  1  0  0  0  0
 12 13  1  0  0  0  0
 13 40  1  0  0  0  0
 13 41  1  0  0  0  0
 13 14  1  0  0  0  0
 14 25  2  0  0  0  0
 14 15  1  0  0  0  0
 15 16  2  0  0  0  0
 15 42  1  0  0  0  0
 16 17  1  0  0  0  0
 16 43  1  0  0  0  0
 17 24  2  0  0  0  0
 17 18  1  0  0  0  0
 18 19  2  0  0  0  0
 18 23  1  0  0  0  0
 19 20  1  0  0  0  0
 19 21  1  0  0  0  0
 20 44  1  0  0  0  0
 20 45  1  0  0  0  0
 20 46  1  0  0  0  0
 21 22  2  0  0  0  0
 22 47  1  0  0  0  0
 22 23  1  0  0  0  0
 24 25  1  0  0  0  0
 24 48  1  0  0  0  0
 25 49  1  0  0  0  0
 27 26  1  0  0  0  0
 26 50  1  0  0  0  0
 26 51  1  0  0  0  0
 27 29  1  0  0  0  0
 27 52  1  0  0  0  0
 27 28  1  0  0  0  0
 28 53  1  0  0  0  0
 29 54  1  0  0  0  0
 29 55  1  0  0  0  0
 30 56  1  0  0  0  0
 30 32  1  0  0  0  0
 30 31  1  0  0  0  0
 31 57  1  0  0  0  0
 31 58  1  0  0  0  0
 31 59  1  0  0  0  0
 32 60  1  0  0  0  0
 32 61  1  0  0  0  0
 32 62  1  0  0  0  0
M  ZZC   1 c1
M  ZZC   2 c2
M  ZZC   3 o1
M  ZZC   4 n1
M  ZZC   5 c3
M  ZZC   6 c4
M  ZZC   7 o2
M  ZZC   8 n2
M  ZZC   9 c5
M  ZZC  10 c6
M  ZZC  11 o3
M  ZZC  12 n3
M  ZZC  13 c7
M  ZZC  14 c8
M  ZZC  15 c9
M  ZZC  16 c10
M  ZZC  17 c11
M  ZZC  18 c12
M  ZZC  19 c13
M  ZZC  20 c14
M  ZZC  21 n4
M  ZZC  22 c15
M  ZZC  23 s1
M  ZZC  24 c16
M  ZZC  25 c17
M  ZZC  26 c18
M  ZZC  27 c19
M  ZZC  28 o4
M  ZZC  29 c20
M  ZZC  30 c21
M  ZZC  31 c22
M  ZZC  32 c23
M  ZZC  33 h11
M  ZZC  34 h12
M  ZZC  35 h13
M  ZZC  36 h01
M  ZZC  37 h31
M  ZZC  38 h51
M  ZZC  39 h02
M  ZZC  40 h71
M  ZZC  41 h72
M  ZZC  42 h91
M  ZZC  43 h101
M  ZZC  44 h141
M  ZZC  45 h142
M  ZZC  46 h143
M  ZZC  47 h151
M  ZZC  48 h161
M  ZZC  49 h171
M  ZZC  50 h181
M  ZZC  51 h182
M  ZZC  52 h191
M  ZZC  53 h41
M  ZZC  54 h201
M  ZZC  55 h202
M  ZZC  56 h211
M  ZZC  57 h221
M  ZZC  58 h222
M  ZZC  59 h223
M  ZZC  60 h231
M  ZZC  61 h232
M  ZZC  62 h233
M  ZZM   1 1
M  ZZI   1 111
M  ZZM   2 3
M  ZZI   2 121
M  ZZM   3 7
M  ZZI   3 81
M  ZZM   4 10
M  ZZI   4 211
M  ZZM   5 1
M  ZZI   5 113
M  ZZM   6 3
M  ZZI   6 121
M  ZZM   7 7
M  ZZI   7 81
M  ZZM   8 10
M  ZZI   8 192
M  ZZM   9 1
M  ZZI   9 113
M  ZZM  10 3
M  ZZI  10 121
M  ZZM  11 7
M  ZZI  11 81
M  ZZM  12 10
M  ZZI  12 211
M  ZZM  13 1
M  ZZI  13 112
M  ZZM  14 37
M  ZZI  14 124
M  ZZM  15 37
M  ZZI  15 125
M  ZZM  16 37
M  ZZI  16 125
M  ZZM  17 37
M  ZZI  17 124
M  ZZM  18 63
M  ZZI  18 104
M  ZZM  19 64
M  ZZI  19 105
M  ZZM  20 1
M  ZZI  20 111
M  ZZM  21 66
M  ZZI  21 222
M  ZZM  22 63
M  ZZI  22 104
M  ZZM  23 44
M  ZZI  23 248
M  ZZM  24 37
M  ZZI  24 125
M  ZZM  25 37
M  ZZI  25 125
M  ZZM  26 1
M  ZZI  26 112
M  ZZM  27 1
M  ZZI  27 113
M  ZZM  28 6
M  ZZI  28 60
M  ZZM  29 1
M  ZZI  29 112
M  ZZM  30 1
M  ZZI  30 113
M  ZZM  31 1
M  ZZI  31 111
M  ZZM  32 1
M  ZZI  32 111
M  ZZM  33 5
M  ZZI  33 1
M  ZZM  34 5
M  ZZI  34 1
M  ZZM  35 5
M  ZZI  35 1
M  ZZM  36 28
M  ZZI  36 11
M  ZZM  37 5
M  ZZI  37 1
M  ZZM  38 5
M  ZZI  38 1
M  ZZM  39 28
M  ZZI  39 11
M  ZZM  40 5
M  ZZI  40 1
M  ZZM  41 5
M  ZZI  41 1
M  ZZM  42 5
M  ZZI  42 1
M  ZZM  43 5
M  ZZI  43 1
M  ZZM  44 5
M  ZZI  44 1
M  ZZM  45 5
M  ZZI  45 1
M  ZZM  46 5
M  ZZI  46 1
M  ZZM  47 5
M  ZZI  47 1
M  ZZM  48 5
M  ZZI  48 1
M  ZZM  49 5
M  ZZI  49 1
M  ZZM  50 5
M  ZZI  50 1
M  ZZM  51 5
M  ZZI  51 1
M  ZZM  52 5
M  ZZI  52 1
M  ZZM  53 21
M  ZZI  53 20
M  ZZM  54 5
M  ZZI  54 1
M  ZZM  55 5
M  ZZI  55 1
M  ZZM  56 5
M  ZZI  56 1
M  ZZM  57 5
M  ZZI  57 1
M  ZZM  58 5
M  ZZI  58 1
M  ZZM  59 5
M  ZZI  59 1
M  ZZM  60 5
M  ZZI  60 1
M  ZZM  61 5
M  ZZI  61 1
M  ZZM  62 5
M  ZZI  62 1
M  END
> <IX>
1

> <NAME>
VHL_5ML8_4.pdb

> <Score>
-3.75252

> <Natom>
62

> <Nflex>
8

> <Hbond>
-4.335991

> <Hphob>
-5.705591

> <VwInt>
-26.859727

> <Dsolv>
22.044912

> <SolEl>
21.485693

> <Eintl>
3.976279

> <RecConf>
ND

> <projPath>
VHL_maps/

> <NAME_>
VHL_5ML8_4.pdb

$$$$
