VHL_5EHR_20.pdb
  MOLSOFT 04032206393D

 68 70  0  0  1  0  0  0  0  0999 V2000
   18.4390    2.7351   -4.6010 C   0  0  0  0  0  0  0  0  0  0  0  0
   18.1661    1.3274   -5.0511 C   0  0  0  0  0  0  0  0  0  0  0  0
   19.0638    0.5491   -5.3392 O   0  0  0  0  0  0  0  0  0  0  0  0
   16.8162    1.0432   -5.1112 N   0  0  0  0  0  0  0  0  0  0  0  0
   16.3065   -0.2553   -5.5521 C   0  0  2  0  0  0  0  0  0  0  0  0
   15.5164   -0.1574   -6.8889 C   0  0  0  0  0  0  0  0  0  0  0  0
   14.2131    0.6561   -6.7790 C   0  0  0  0  0  0  0  0  0  0  0  0
   16.3886    0.4985   -7.9677 C   0  0  0  0  0  0  0  0  0  0  0  0
   15.1713   -1.5709   -7.3591 C   0  0  0  0  0  0  0  0  0  0  0  0
   15.4648   -0.8150   -4.3905 C   0  0  0  0  0  0  0  0  0  0  0  0
   14.5816   -0.1452   -3.8692 O   0  0  0  0  0  0  0  0  0  0  0  0
   15.7564   -2.1042   -3.9415 N   0  0  0  0  0  0  0  0  0  0  0  0
   14.9939   -2.7124   -2.8580 C   0  0  2  0  0  0  0  0  0  0  0  0
   15.4240   -2.0811   -1.5283 C   0  0  0  0  0  0  0  0  0  0  0  0
   16.5942   -1.8424   -1.2599 O   0  0  0  0  0  0  0  0  0  0  0  0
   14.3740   -1.8166   -0.6673 N   0  0  0  0  0  0  0  0  0  0  0  0
   14.5609   -1.1198    0.5984 C   0  0  1  0  0  0  0  0  0  0  0  0
   13.5154   -0.0106    0.7067 C   0  0  0  0  0  0  0  0  0  0  0  0
   14.5971   -2.0948    1.7650 C   0  0  0  0  0  0  0  0  0  0  0  0
   15.6619   -2.9851    1.8757 C   0  0  0  0  0  0  0  0  0  0  0  0
   15.7428   -3.8960    2.9128 C   0  0  0  0  0  0  0  0  0  0  0  0
   14.7590   -3.9562    3.8949 C   0  0  0  0  0  0  0  0  0  0  0  0
   14.8189   -4.9514    4.9657 C   0  0  0  0  0  0  0  0  0  0  0  0
   13.8313   -5.7610    5.5209 C   0  0  0  0  0  0  0  0  0  0  0  0
   12.3987   -5.8301    5.1477 C   0  0  0  0  0  0  0  0  0  0  0  0
   14.2585   -6.6020    6.5292 N   0  0  0  0  0  0  0  0  0  0  0  0
   15.5443   -6.4350    6.7335 C   0  0  0  0  0  0  0  0  0  0  0  0
   16.3169   -5.2724    5.7549 S   0  0  0  0  0  0  0  0  0  0  0  0
   13.7062   -3.0518    3.8059 C   0  0  0  0  0  0  0  0  0  0  0  0
   13.6218   -2.1444    2.7617 C   0  0  0  0  0  0  0  0  0  0  0  0
   15.3649   -4.1878   -2.9134 C   0  0  0  0  0  0  0  0  0  0  0  0
   16.7869   -4.1710   -3.4454 C   0  0  1  0  0  0  0  0  0  0  0  0
   17.1084   -5.4023   -4.0888 O   0  0  0  0  0  0  0  0  0  0  0  0
   16.7943   -3.0018   -4.4186 C   0  0  0  0  0  0  0  0  0  0  0  0
   17.9603    3.4432   -5.2846 H   0  0  0  0  0  0  0  0  0  0  0  0
   19.5174    2.9196   -4.5958 H   0  0  0  0  0  0  0  0  0  0  0  0
   18.0488    2.8824   -3.5893 H   0  0  0  0  0  0  0  0  0  0  0  0
   16.1474    1.7395   -4.7964 H   0  0  0  0  0  0  0  0  0  0  0  0
   17.1749   -0.8970   -5.7158 H   0  0  0  0  0  0  0  0  0  0  0  0
   13.4749    0.1703   -6.1342 H   0  0  0  0  0  0  0  0  0  0  0  0
   13.7386    0.7740   -7.7587 H   0  0  0  0  0  0  0  0  0  0  0  0
   14.3912    1.6619   -6.3867 H   0  0  0  0  0  0  0  0  0  0  0  0
   16.6237    1.5403   -7.7304 H   0  0  0  0  0  0  0  0  0  0  0  0
   15.8852    0.4992   -8.9361 H   0  0  0  0  0  0  0  0  0  0  0  0
   17.3307   -0.0370   -8.1008 H   0  0  0  0  0  0  0  0  0  0  0  0
   14.6917   -1.5596   -8.3403 H   0  0  0  0  0  0  0  0  0  0  0  0
   14.4823   -2.0638   -6.6739 H   0  0  0  0  0  0  0  0  0  0  0  0
   16.0654   -2.1922   -7.4348 H   0  0  0  0  0  0  0  0  0  0  0  0
   13.9214   -2.5535   -3.0209 H   0  0  0  0  0  0  0  0  0  0  0  0
   13.4348   -2.1070   -0.9145 H   0  0  0  0  0  0  0  0  0  0  0  0
   15.5362   -0.6209    0.5723 H   0  0  0  0  0  0  0  0  0  0  0  0
   13.6332    0.5680    1.6284 H   0  0  0  0  0  0  0  0  0  0  0  0
   12.4974   -0.4118    0.6808 H   0  0  0  0  0  0  0  0  0  0  0  0
   13.6013    0.6849   -0.1344 H   0  0  0  0  0  0  0  0  0  0  0  0
   16.4554   -2.9794    1.1344 H   0  0  0  0  0  0  0  0  0  0  0  0
   16.5862   -4.5799    2.9282 H   0  0  0  0  0  0  0  0  0  0  0  0
   11.8301   -5.0576    5.6723 H   0  0  0  0  0  0  0  0  0  0  0  0
   11.9715   -6.8013    5.4143 H   0  0  0  0  0  0  0  0  0  0  0  0
   12.2543   -5.6953    4.0733 H   0  0  0  0  0  0  0  0  0  0  0  0
   16.0892   -6.9971    7.4785 H   0  0  0  0  0  0  0  0  0  0  0  0
   12.9290   -3.0395    4.5633 H   0  0  0  0  0  0  0  0  0  0  0  0
   12.7706   -1.4715    2.7455 H   0  0  0  0  0  0  0  0  0  0  0  0
   15.2914   -4.6971   -1.9467 H   0  0  0  0  0  0  0  0  0  0  0  0
   14.7117   -4.7266   -3.6077 H   0  0  0  0  0  0  0  0  0  0  0  0
   17.4915   -3.9992   -2.6256 H   0  0  0  0  0  0  0  0  0  0  0  0
   18.0598   -5.3716   -4.3006 H   0  0  0  0  0  0  0  0  0  0  0  0
   16.5613   -3.3164   -5.4402 H   0  0  0  0  0  0  0  0  0  0  0  0
   17.7655   -2.4979   -4.4301 H   0  0  0  0  0  0  0  0  0  0  0  0
  1 35  1  0  0  0  0
  1 36  1  0  0  0  0
  1 37  1  0  0  0  0
  1  2  1  0  0  0  0
  2  3  2  0  0  0  0
  2  4  1  0  0  0  0
  4 38  1  0  0  0  0
  5  4  1  0  0  0  0
  5 39  1  0  0  0  0
  5  6  1  0  0  0  0
  5 10  1  0  0  0  0
  6  7  1  0  0  0  0
  6  8  1  0  0  0  0
  6  9  1  0  0  0  0
  7 40  1  0  0  0  0
  7 41  1  0  0  0  0
  7 42  1  0  0  0  0
  8 43  1  0  0  0  0
  8 44  1  0  0  0  0
  8 45  1  0  0  0  0
  9 46  1  0  0  0  0
  9 47  1  0  0  0  0
  9 48  1  0  0  0  0
 10 11  2  0  0  0  0
 10 12  1  0  0  0  0
 12 34  1  0  0  0  0
 13 12  1  0  0  0  0
 13 31  1  0  0  0  0
 13 49  1  0  0  0  0
 13 14  1  0  0  0  0
 14 15  2  0  0  0  0
 14 16  1  0  0  0  0
 16 50  1  0  0  0  0
 17 16  1  0  0  0  0
 17 51  1  0  0  0  0
 17 18  1  0  0  0  0
 17 19  1  0  0  0  0
 18 52  1  0  0  0  0
 18 53  1  0  0  0  0
 18 54  1  0  0  0  0
 19 20  1  0  0  0  0
 19 30  2  0  0  0  0
 20 55  1  0  0  0  0
 20 21  2  0  0  0  0
 21 56  1  0  0  0  0
 21 22  1  0  0  0  0
 22 29  2  0  0  0  0
 22 23  1  0  0  0  0
 23 24  2  0  0  0  0
 23 28  1  0  0  0  0
 24 25  1  0  0  0  0
 24 26  1  0  0  0  0
 25 57  1  0  0  0  0
 25 58  1  0  0  0  0
 25 59  1  0  0  0  0
 26 27  2  0  0  0  0
 27 60  1  0  0  0  0
 27 28  1  0  0  0  0
 29 61  1  0  0  0  0
 29 30  1  0  0  0  0
 30 62  1  0  0  0  0
 32 31  1  0  0  0  0
 31 63  1  0  0  0  0
 31 64  1  0  0  0  0
 32 34  1  0  0  0  0
 32 65  1  0  0  0  0
 32 33  1  0  0  0  0
 33 66  1  0  0  0  0
 34 67  1  0  0  0  0
 34 68  1  0  0  0  0
M  ZZC   1 c1
M  ZZC   2 c2
M  ZZC   3 o1
M  ZZC   4 n1
M  ZZC   5 c3
M  ZZC   6 c4
M  ZZC   7 c5
M  ZZC   8 c6
M  ZZC   9 c7
M  ZZC  10 c8
M  ZZC  11 o2
M  ZZC  12 n2
M  ZZC  13 c9
M  ZZC  14 c10
M  ZZC  15 o3
M  ZZC  16 n3
M  ZZC  17 c11
M  ZZC  18 c12
M  ZZC  19 c13
M  ZZC  20 c14
M  ZZC  21 c15
M  ZZC  22 c16
M  ZZC  23 c17
M  ZZC  24 c18
M  ZZC  25 c19
M  ZZC  26 n4
M  ZZC  27 c20
M  ZZC  28 s1
M  ZZC  29 c21
M  ZZC  30 c22
M  ZZC  31 c23
M  ZZC  32 c24
M  ZZC  33 o4
M  ZZC  34 c25
M  ZZC  35 h11
M  ZZC  36 h12
M  ZZC  37 h13
M  ZZC  38 h01
M  ZZC  39 h31
M  ZZC  40 h51
M  ZZC  41 h52
M  ZZC  42 h53
M  ZZC  43 h61
M  ZZC  44 h62
M  ZZC  45 h63
M  ZZC  46 h71
M  ZZC  47 h72
M  ZZC  48 h73
M  ZZC  49 h91
M  ZZC  50 h02
M  ZZC  51 h111
M  ZZC  52 h121
M  ZZC  53 h122
M  ZZC  54 h123
M  ZZC  55 h141
M  ZZC  56 h151
M  ZZC  57 h191
M  ZZC  58 h192
M  ZZC  59 h193
M  ZZC  60 h201
M  ZZC  61 h211
M  ZZC  62 h221
M  ZZC  63 h231
M  ZZC  64 h232
M  ZZC  65 h241
M  ZZC  66 h41
M  ZZC  67 h251
M  ZZC  68 h252
M  ZZM   1 1
M  ZZI   1 111
M  ZZM   2 3
M  ZZI   2 121
M  ZZM   3 7
M  ZZI   3 81
M  ZZM   4 10
M  ZZI   4 211
M  ZZM   5 1
M  ZZI   5 113
M  ZZM   6 1
M  ZZI   6 110
M  ZZM   7 1
M  ZZI   7 111
M  ZZM   8 1
M  ZZI   8 111
M  ZZM   9 1
M  ZZI   9 111
M  ZZM  10 3
M  ZZI  10 121
M  ZZM  11 7
M  ZZI  11 81
M  ZZM  12 10
M  ZZI  12 192
M  ZZM  13 1
M  ZZI  13 113
M  ZZM  14 3
M  ZZI  14 121
M  ZZM  15 7
M  ZZI  15 81
M  ZZM  16 10
M  ZZI  16 211
M  ZZM  17 1
M  ZZI  17 113
M  ZZM  18 1
M  ZZI  18 111
M  ZZM  19 37
M  ZZI  19 124
M  ZZM  20 37
M  ZZI  20 125
M  ZZM  21 37
M  ZZI  21 125
M  ZZM  22 37
M  ZZI  22 124
M  ZZM  23 63
M  ZZI  23 104
M  ZZM  24 64
M  ZZI  24 105
M  ZZM  25 1
M  ZZI  25 111
M  ZZM  26 66
M  ZZI  26 222
M  ZZM  27 63
M  ZZI  27 104
M  ZZM  28 44
M  ZZI  28 248
M  ZZM  29 37
M  ZZI  29 125
M  ZZM  30 37
M  ZZI  30 125
M  ZZM  31 1
M  ZZI  31 112
M  ZZM  32 1
M  ZZI  32 113
M  ZZM  33 6
M  ZZI  33 60
M  ZZM  34 1
M  ZZI  34 112
M  ZZM  35 5
M  ZZI  35 1
M  ZZM  36 5
M  ZZI  36 1
M  ZZM  37 5
M  ZZI  37 1
M  ZZM  38 28
M  ZZI  38 11
M  ZZM  39 5
M  ZZI  39 1
M  ZZM  40 5
M  ZZI  40 1
M  ZZM  41 5
M  ZZI  41 1
M  ZZM  42 5
M  ZZI  42 1
M  ZZM  43 5
M  ZZI  43 1
M  ZZM  44 5
M  ZZI  44 1
M  ZZM  45 5
M  ZZI  45 1
M  ZZM  46 5
M  ZZI  46 1
M  ZZM  47 5
M  ZZI  47 1
M  ZZM  48 5
M  ZZI  48 1
M  ZZM  49 5
M  ZZI  49 1
M  ZZM  50 28
M  ZZI  50 11
M  ZZM  51 5
M  ZZI  51 1
M  ZZM  52 5
M  ZZI  52 1
M  ZZM  53 5
M  ZZI  53 1
M  ZZM  54 5
M  ZZI  54 1
M  ZZM  55 5
M  ZZI  55 1
M  ZZM  56 5
M  ZZI  56 1
M  ZZM  57 5
M  ZZI  57 1
M  ZZM  58 5
M  ZZI  58 1
M  ZZM  59 5
M  ZZI  59 1
M  ZZM  60 5
M  ZZI  60 1
M  ZZM  61 5
M  ZZI  61 1
M  ZZM  62 5
M  ZZI  62 1
M  ZZM  63 5
M  ZZI  63 1
M  ZZM  64 5
M  ZZI  64 1
M  ZZM  65 5
M  ZZI  65 1
M  ZZM  66 21
M  ZZI  66 20
M  ZZM  67 5
M  ZZI  67 1
M  ZZM  68 5
M  ZZI  68 1
M  END
> <IX>
1

> <NAME>
VHL_5EHR_20.pdb

> <Score>
-14.51313

> <Natom>
68

> <Nflex>
8

> <Hbond>
-4.195342

> <Hphob>
-6.413754

> <VwInt>
-28.18556

> <Dsolv>
16.09397

> <SolEl>
12.974584

> <Eintl>
5.250264

> <RecConf>
ND

> <projPath>
VHL_maps/

> <NAME_>
VHL_5EHR_20.pdb

$$$$
