VHL_4IM0_31.pdb
  MOLSOFT 04032206373D

 62 64  0  0  1  0  0  0  0  0999 V2000
   18.1201   -7.2349   -5.3595 C   0  0  0  0  0  0  0  0  0  0  0  0
   17.0065   -6.2365   -5.1974 C   0  0  0  0  0  0  0  0  0  0  0  0
   15.8865   -6.4756   -5.6154 O   0  0  0  0  0  0  0  0  0  0  0  0
   17.3770   -5.0866   -4.5318 N   0  0  0  0  0  0  0  0  0  0  0  0
   16.4724   -3.9664   -4.2520 C   0  0  2  0  0  0  0  0  0  0  0  0
   17.1202   -2.7221   -4.8779 C   0  0  0  0  0  0  0  0  0  0  0  0
   18.3178   -2.5004   -4.7673 O   0  0  0  0  0  0  0  0  0  0  0  0
   16.2880   -1.8271   -5.5470 N   0  0  0  0  0  0  0  0  0  0  0  0
   16.8387   -0.6971   -6.2795 C   0  0  2  0  0  0  0  0  0  0  0  0
   17.3317    0.4166   -5.3596 C   0  0  0  0  0  0  0  0  0  0  0  0
   16.8667    0.6156   -4.2453 O   0  0  0  0  0  0  0  0  0  0  0  0
   18.2792    1.2259   -5.9625 N   0  0  0  0  0  0  0  0  0  0  0  0
   18.6282    2.5277   -5.4291 C   0  0  0  0  0  0  0  0  0  0  0  0
   17.6306    3.5353   -5.9335 C   0  0  0  0  0  0  0  0  0  0  0  0
   16.3734    3.6094   -5.3434 C   0  0  0  0  0  0  0  0  0  0  0  0
   15.3555    4.3134   -5.9478 C   0  0  0  0  0  0  0  0  0  0  0  0
   15.5840    4.9899   -7.1356 C   0  0  0  0  0  0  0  0  0  0  0  0
   14.4557    5.5608   -7.8381 C   0  0  0  0  0  0  0  0  0  0  0  0
   13.4281    4.9152   -8.5101 C   0  0  0  0  0  0  0  0  0  0  0  0
   13.2999    3.4581   -8.7541 C   0  0  0  0  0  0  0  0  0  0  0  0
   12.4269    5.7444   -8.9613 N   0  0  0  0  0  0  0  0  0  0  0  0
   12.7446    6.9913   -8.6898 C   0  0  0  0  0  0  0  0  0  0  0  0
   14.2168    7.2564   -7.8745 S   0  0  0  0  0  0  0  0  0  0  0  0
   16.8694    5.0324   -7.6617 C   0  0  0  0  0  0  0  0  0  0  0  0
   17.8836    4.2946   -7.0727 C   0  0  0  0  0  0  0  0  0  0  0  0
   15.6969   -0.2101   -7.1713 C   0  0  0  0  0  0  0  0  0  0  0  0
   14.4531   -0.6529   -6.4211 C   0  0  1  0  0  0  0  0  0  0  0  0
   13.3441   -0.8259   -7.3019 O   0  0  0  0  0  0  0  0  0  0  0  0
   14.8848   -1.9835   -5.8412 C   0  0  0  0  0  0  0  0  0  0  0  0
   16.2309   -3.8218   -2.7345 C   0  0  0  0  0  0  0  0  0  0  0  0
   15.3857   -4.9902   -2.2363 C   0  0  0  0  0  0  0  0  0  0  0  0
   15.5318   -2.5218   -2.3357 C   0  0  0  0  0  0  0  0  0  0  0  0
   19.1008   -6.7784   -5.1974 H   0  0  0  0  0  0  0  0  0  0  0  0
   18.0911   -7.6387   -6.3747 H   0  0  0  0  0  0  0  0  0  0  0  0
   17.9748   -8.0467   -4.6421 H   0  0  0  0  0  0  0  0  0  0  0  0
   18.3503   -4.9780   -4.2684 H   0  0  0  0  0  0  0  0  0  0  0  0
   15.5212   -4.1732   -4.7355 H   0  0  0  0  0  0  0  0  0  0  0  0
   17.6758   -1.0416   -6.8829 H   0  0  0  0  0  0  0  0  0  0  0  0
   18.6536    0.9640   -6.8700 H   0  0  0  0  0  0  0  0  0  0  0  0
   18.6316    2.4963   -4.3339 H   0  0  0  0  0  0  0  0  0  0  0  0
   19.6424    2.7701   -5.7630 H   0  0  0  0  0  0  0  0  0  0  0  0
   16.1528    3.0509   -4.4387 H   0  0  0  0  0  0  0  0  0  0  0  0
   14.3625    4.2929   -5.5063 H   0  0  0  0  0  0  0  0  0  0  0  0
   12.4022    3.2426   -9.3402 H   0  0  0  0  0  0  0  0  0  0  0  0
   13.2174    2.9042   -7.8151 H   0  0  0  0  0  0  0  0  0  0  0  0
   14.1663    3.0705   -9.2966 H   0  0  0  0  0  0  0  0  0  0  0  0
   12.1136    7.8211   -8.9540 H   0  0  0  0  0  0  0  0  0  0  0  0
   17.0747    5.5952   -8.5679 H   0  0  0  0  0  0  0  0  0  0  0  0
   18.8628    4.2733   -7.5422 H   0  0  0  0  0  0  0  0  0  0  0  0
   15.7017    0.8690   -7.3584 H   0  0  0  0  0  0  0  0  0  0  0  0
   15.7398   -0.6996   -8.1516 H   0  0  0  0  0  0  0  0  0  0  0  0
   14.1963    0.0598   -5.6279 H   0  0  0  0  0  0  0  0  0  0  0  0
   12.6183   -0.2547   -6.9929 H   0  0  0  0  0  0  0  0  0  0  0  0
   14.8124   -2.7709   -6.5934 H   0  0  0  0  0  0  0  0  0  0  0  0
   14.2983   -2.2797   -4.9686 H   0  0  0  0  0  0  0  0  0  0  0  0
   17.1949   -3.8469   -2.2141 H   0  0  0  0  0  0  0  0  0  0  0  0
   15.1718   -4.9027   -1.1666 H   0  0  0  0  0  0  0  0  0  0  0  0
   15.9036   -5.9392   -2.3915 H   0  0  0  0  0  0  0  0  0  0  0  0
   14.4291   -5.0356   -2.7601 H   0  0  0  0  0  0  0  0  0  0  0  0
   15.4080   -2.4694   -1.2495 H   0  0  0  0  0  0  0  0  0  0  0  0
   14.5335   -2.4468   -2.7758 H   0  0  0  0  0  0  0  0  0  0  0  0
   16.1093   -1.6430   -2.6331 H   0  0  0  0  0  0  0  0  0  0  0  0
  1 33  1  0  0  0  0
  1 34  1  0  0  0  0
  1 35  1  0  0  0  0
  1  2  1  0  0  0  0
  2  3  2  0  0  0  0
  2  4  1  0  0  0  0
  4 36  1  0  0  0  0
  5  4  1  0  0  0  0
  5 37  1  0  0  0  0
  5 30  1  0  0  0  0
  5  6  1  0  0  0  0
  6  7  2  0  0  0  0
  6  8  1  0  0  0  0
  8 29  1  0  0  0  0
  9  8  1  0  0  0  0
  9 26  1  0  0  0  0
  9 38  1  0  0  0  0
  9 10  1  0  0  0  0
 10 11  2  0  0  0  0
 10 12  1  0  0  0  0
 12 39  1  0  0  0  0
 12 13  1  0  0  0  0
 13 40  1  0  0  0  0
 13 41  1  0  0  0  0
 13 14  1  0  0  0  0
 14 25  2  0  0  0  0
 14 15  1  0  0  0  0
 15 16  2  0  0  0  0
 15 42  1  0  0  0  0
 16 17  1  0  0  0  0
 16 43  1  0  0  0  0
 17 24  2  0  0  0  0
 17 18  1  0  0  0  0
 18 19  2  0  0  0  0
 18 23  1  0  0  0  0
 19 20  1  0  0  0  0
 19 21  1  0  0  0  0
 20 44  1  0  0  0  0
 20 45  1  0  0  0  0
 20 46  1  0  0  0  0
 21 22  2  0  0  0  0
 22 47  1  0  0  0  0
 22 23  1  0  0  0  0
 24 25  1  0  0  0  0
 24 48  1  0  0  0  0
 25 49  1  0  0  0  0
 27 26  1  0  0  0  0
 26 50  1  0  0  0  0
 26 51  1  0  0  0  0
 27 29  1  0  0  0  0
 27 52  1  0  0  0  0
 27 28  1  0  0  0  0
 28 53  1  0  0  0  0
 29 54  1  0  0  0  0
 29 55  1  0  0  0  0
 30 56  1  0  0  0  0
 30 32  1  0  0  0  0
 30 31  1  0  0  0  0
 31 57  1  0  0  0  0
 31 58  1  0  0  0  0
 31 59  1  0  0  0  0
 32 60  1  0  0  0  0
 32 61  1  0  0  0  0
 32 62  1  0  0  0  0
M  ZZC   1 c1
M  ZZC   2 c2
M  ZZC   3 o1
M  ZZC   4 n1
M  ZZC   5 c3
M  ZZC   6 c4
M  ZZC   7 o2
M  ZZC   8 n2
M  ZZC   9 c5
M  ZZC  10 c6
M  ZZC  11 o3
M  ZZC  12 n3
M  ZZC  13 c7
M  ZZC  14 c8
M  ZZC  15 c9
M  ZZC  16 c10
M  ZZC  17 c11
M  ZZC  18 c12
M  ZZC  19 c13
M  ZZC  20 c14
M  ZZC  21 n4
M  ZZC  22 c15
M  ZZC  23 s1
M  ZZC  24 c16
M  ZZC  25 c17
M  ZZC  26 c18
M  ZZC  27 c19
M  ZZC  28 o4
M  ZZC  29 c20
M  ZZC  30 c21
M  ZZC  31 c22
M  ZZC  32 c23
M  ZZC  33 h11
M  ZZC  34 h12
M  ZZC  35 h13
M  ZZC  36 h01
M  ZZC  37 h31
M  ZZC  38 h51
M  ZZC  39 h02
M  ZZC  40 h71
M  ZZC  41 h72
M  ZZC  42 h91
M  ZZC  43 h101
M  ZZC  44 h141
M  ZZC  45 h142
M  ZZC  46 h143
M  ZZC  47 h151
M  ZZC  48 h161
M  ZZC  49 h171
M  ZZC  50 h181
M  ZZC  51 h182
M  ZZC  52 h191
M  ZZC  53 h41
M  ZZC  54 h201
M  ZZC  55 h202
M  ZZC  56 h211
M  ZZC  57 h221
M  ZZC  58 h222
M  ZZC  59 h223
M  ZZC  60 h231
M  ZZC  61 h232
M  ZZC  62 h233
M  ZZM   1 1
M  ZZI   1 111
M  ZZM   2 3
M  ZZI   2 121
M  ZZM   3 7
M  ZZI   3 81
M  ZZM   4 10
M  ZZI   4 211
M  ZZM   5 1
M  ZZI   5 113
M  ZZM   6 3
M  ZZI   6 121
M  ZZM   7 7
M  ZZI   7 81
M  ZZM   8 10
M  ZZI   8 192
M  ZZM   9 1
M  ZZI   9 113
M  ZZM  10 3
M  ZZI  10 121
M  ZZM  11 7
M  ZZI  11 81
M  ZZM  12 10
M  ZZI  12 211
M  ZZM  13 1
M  ZZI  13 112
M  ZZM  14 37
M  ZZI  14 124
M  ZZM  15 37
M  ZZI  15 125
M  ZZM  16 37
M  ZZI  16 125
M  ZZM  17 37
M  ZZI  17 124
M  ZZM  18 63
M  ZZI  18 104
M  ZZM  19 64
M  ZZI  19 105
M  ZZM  20 1
M  ZZI  20 111
M  ZZM  21 66
M  ZZI  21 222
M  ZZM  22 63
M  ZZI  22 104
M  ZZM  23 44
M  ZZI  23 248
M  ZZM  24 37
M  ZZI  24 125
M  ZZM  25 37
M  ZZI  25 125
M  ZZM  26 1
M  ZZI  26 112
M  ZZM  27 1
M  ZZI  27 113
M  ZZM  28 6
M  ZZI  28 60
M  ZZM  29 1
M  ZZI  29 112
M  ZZM  30 1
M  ZZI  30 113
M  ZZM  31 1
M  ZZI  31 111
M  ZZM  32 1
M  ZZI  32 111
M  ZZM  33 5
M  ZZI  33 1
M  ZZM  34 5
M  ZZI  34 1
M  ZZM  35 5
M  ZZI  35 1
M  ZZM  36 28
M  ZZI  36 11
M  ZZM  37 5
M  ZZI  37 1
M  ZZM  38 5
M  ZZI  38 1
M  ZZM  39 28
M  ZZI  39 11
M  ZZM  40 5
M  ZZI  40 1
M  ZZM  41 5
M  ZZI  41 1
M  ZZM  42 5
M  ZZI  42 1
M  ZZM  43 5
M  ZZI  43 1
M  ZZM  44 5
M  ZZI  44 1
M  ZZM  45 5
M  ZZI  45 1
M  ZZM  46 5
M  ZZI  46 1
M  ZZM  47 5
M  ZZI  47 1
M  ZZM  48 5
M  ZZI  48 1
M  ZZM  49 5
M  ZZI  49 1
M  ZZM  50 5
M  ZZI  50 1
M  ZZM  51 5
M  ZZI  51 1
M  ZZM  52 5
M  ZZI  52 1
M  ZZM  53 21
M  ZZI  53 20
M  ZZM  54 5
M  ZZI  54 1
M  ZZM  55 5
M  ZZI  55 1
M  ZZM  56 5
M  ZZI  56 1
M  ZZM  57 5
M  ZZI  57 1
M  ZZM  58 5
M  ZZI  58 1
M  ZZM  59 5
M  ZZI  59 1
M  ZZM  60 5
M  ZZI  60 1
M  ZZM  61 5
M  ZZI  61 1
M  ZZM  62 5
M  ZZI  62 1
M  END
> <IX>
1

> <NAME>
VHL_4IM0_31.pdb

> <Score>
-11.516132

> <Natom>
62

> <Nflex>
8

> <Hbond>
-7.116346

> <Hphob>
-6.32471

> <VwInt>
-28.779915

> <Dsolv>
22.480342

> <SolEl>
21.277774

> <Eintl>
6.336846

> <RecConf>
ND

> <projPath>
VHL_maps/

> <NAME_>
VHL_4IM0_31.pdb

$$$$
