VHL_4IM0_16.pdb
  MOLSOFT 04032206383D

 65 67  0  0  1  0  0  0  0  0999 V2000
   18.1185   -6.7006   -5.1299 C   0  0  0  0  0  0  0  0  0  0  0  0
   16.9093   -5.8174   -4.9868 C   0  0  0  0  0  0  0  0  0  0  0  0
   15.8233   -6.1702   -5.4134 O   0  0  0  0  0  0  0  0  0  0  0  0
   17.1575   -4.6389   -4.3110 N   0  0  0  0  0  0  0  0  0  0  0  0
   16.1539   -3.5957   -4.0435 C   0  0  1  0  0  0  0  0  0  0  0  0
   15.8841   -3.4282   -2.5188 C   0  0  0  0  0  0  0  0  0  0  0  0
   14.7743   -2.4129   -2.2229 C   0  0  0  0  0  0  0  0  0  0  0  0
   15.4061   -4.7773   -1.9675 C   0  0  0  0  0  0  0  0  0  0  0  0
   17.1347   -2.9780   -1.7504 C   0  0  0  0  0  0  0  0  0  0  0  0
   16.6762   -2.3492   -4.7887 C   0  0  0  0  0  0  0  0  0  0  0  0
   17.8746   -2.0953   -4.8201 O   0  0  0  0  0  0  0  0  0  0  0  0
   15.7477   -1.5512   -5.4635 N   0  0  0  0  0  0  0  0  0  0  0  0
   16.1761   -0.6166   -6.4940 C   0  0  2  0  0  0  0  0  0  0  0  0
   16.5779    0.7497   -5.9292 C   0  0  0  0  0  0  0  0  0  0  0  0
   16.0302    1.2526   -4.9573 O   0  0  0  0  0  0  0  0  0  0  0  0
   17.5612    1.3831   -6.6696 N   0  0  0  0  0  0  0  0  0  0  0  0
   18.0144    2.7286   -6.3515 C   0  0  0  0  0  0  0  0  0  0  0  0
   19.4684    3.0227   -6.6512 C   0  0  0  0  0  0  0  0  0  0  0  0
   20.3553    2.0818   -7.1645 C   0  0  0  0  0  0  0  0  0  0  0  0
   21.6835    2.3957   -7.3807 C   0  0  0  0  0  0  0  0  0  0  0  0
   22.1904    3.6501   -7.0766 C   0  0  0  0  0  0  0  0  0  0  0  0
   23.6141    3.9232   -7.2362 C   0  0  0  0  0  0  0  0  0  0  0  0
   24.4330    3.8867   -8.3588 C   0  0  0  0  0  0  0  0  0  0  0  0
   24.0288    3.6184   -9.7563 C   0  0  0  0  0  0  0  0  0  0  0  0
   25.7708    4.1237   -8.1161 N   0  0  0  0  0  0  0  0  0  0  0  0
   25.9556    4.3585   -6.8371 C   0  0  0  0  0  0  0  0  0  0  0  0
   24.5609    4.3177   -5.8536 S   0  0  0  0  0  0  0  0  0  0  0  0
   21.3087    4.6028   -6.5807 C   0  0  0  0  0  0  0  0  0  0  0  0
   19.9720    4.2926   -6.3783 C   0  0  0  0  0  0  0  0  0  0  0  0
   14.9580   -0.4984   -7.3980 C   0  0  0  0  0  0  0  0  0  0  0  0
   13.7816   -0.6412   -6.4427 C   0  0  1  0  0  0  0  0  0  0  0  0
   12.6499   -1.2362   -7.0731 O   0  0  0  0  0  0  0  0  0  0  0  0
   14.2994   -1.5605   -5.3500 C   0  0  0  0  0  0  0  0  0  0  0  0
   19.0305   -6.1057   -5.2389 H   0  0  0  0  0  0  0  0  0  0  0  0
   18.0078   -7.3275   -6.0198 H   0  0  0  0  0  0  0  0  0  0  0  0
   18.1976   -7.3408   -4.2481 H   0  0  0  0  0  0  0  0  0  0  0  0
   18.1180   -4.4388   -4.0559 H   0  0  0  0  0  0  0  0  0  0  0  0
   15.2271   -3.9233   -4.5133 H   0  0  0  0  0  0  0  0  0  0  0  0
   15.0668   -1.3993   -2.5104 H   0  0  0  0  0  0  0  0  0  0  0  0
   14.5425   -2.3756   -1.1533 H   0  0  0  0  0  0  0  0  0  0  0  0
   13.8449   -2.6757   -2.7374 H   0  0  0  0  0  0  0  0  0  0  0  0
   15.1371   -4.6959   -0.9119 H   0  0  0  0  0  0  0  0  0  0  0  0
   16.1738   -5.5481   -2.0571 H   0  0  0  0  0  0  0  0  0  0  0  0
   14.5215   -5.1391   -2.5014 H   0  0  0  0  0  0  0  0  0  0  0  0
   16.9405   -2.9130   -0.6749 H   0  0  0  0  0  0  0  0  0  0  0  0
   17.4800   -1.9924   -2.0775 H   0  0  0  0  0  0  0  0  0  0  0  0
   17.9611   -3.6738   -1.8810 H   0  0  0  0  0  0  0  0  0  0  0  0
   17.0263   -1.0383   -7.0388 H   0  0  0  0  0  0  0  0  0  0  0  0
   17.9446    0.9094   -7.4811 H   0  0  0  0  0  0  0  0  0  0  0  0
   17.3833    3.4083   -6.9343 H   0  0  0  0  0  0  0  0  0  0  0  0
   17.8236    2.9210   -5.2903 H   0  0  0  0  0  0  0  0  0  0  0  0
   20.0362    1.0716   -7.3863 H   0  0  0  0  0  0  0  0  0  0  0  0
   22.3346    1.6228   -7.7689 H   0  0  0  0  0  0  0  0  0  0  0  0
   23.8828    2.5479   -9.9139 H   0  0  0  0  0  0  0  0  0  0  0  0
   24.7965    3.9560  -10.4583 H   0  0  0  0  0  0  0  0  0  0  0  0
   23.1016    4.1417  -10.0044 H   0  0  0  0  0  0  0  0  0  0  0  0
   26.9326    4.5665   -6.4243 H   0  0  0  0  0  0  0  0  0  0  0  0
   21.6595    5.6009   -6.3356 H   0  0  0  0  0  0  0  0  0  0  0  0
   19.3156    5.0599   -5.9779 H   0  0  0  0  0  0  0  0  0  0  0  0
   14.9168    0.4399   -7.9611 H   0  0  0  0  0  0  0  0  0  0  0  0
   14.9510   -1.3148   -8.1289 H   0  0  0  0  0  0  0  0  0  0  0  0
   13.4834    0.3282   -6.0271 H   0  0  0  0  0  0  0  0  0  0  0  0
   12.3398   -0.6355   -7.7741 H   0  0  0  0  0  0  0  0  0  0  0  0
   13.9040   -2.5753   -5.4117 H   0  0  0  0  0  0  0  0  0  0  0  0
   14.0164   -1.1498   -4.3808 H   0  0  0  0  0  0  0  0  0  0  0  0
  1 34  1  0  0  0  0
  1 35  1  0  0  0  0
  1 36  1  0  0  0  0
  1  2  1  0  0  0  0
  2  3  2  0  0  0  0
  2  4  1  0  0  0  0
  4 37  1  0  0  0  0
  5  4  1  0  0  0  0
  5 38  1  0  0  0  0
  5  6  1  0  0  0  0
  5 10  1  0  0  0  0
  6  7  1  0  0  0  0
  6  8  1  0  0  0  0
  6  9  1  0  0  0  0
  7 39  1  0  0  0  0
  7 40  1  0  0  0  0
  7 41  1  0  0  0  0
  8 42  1  0  0  0  0
  8 43  1  0  0  0  0
  8 44  1  0  0  0  0
  9 45  1  0  0  0  0
  9 46  1  0  0  0  0
  9 47  1  0  0  0  0
 10 11  2  0  0  0  0
 10 12  1  0  0  0  0
 12 33  1  0  0  0  0
 13 12  1  0  0  0  0
 13 30  1  0  0  0  0
 13 48  1  0  0  0  0
 13 14  1  0  0  0  0
 14 15  2  0  0  0  0
 14 16  1  0  0  0  0
 16 49  1  0  0  0  0
 16 17  1  0  0  0  0
 17 50  1  0  0  0  0
 17 51  1  0  0  0  0
 17 18  1  0  0  0  0
 18 19  1  0  0  0  0
 18 29  2  0  0  0  0
 19 52  1  0  0  0  0
 19 20  2  0  0  0  0
 20 53  1  0  0  0  0
 20 21  1  0  0  0  0
 21 28  2  0  0  0  0
 21 22  1  0  0  0  0
 22 23  2  0  0  0  0
 22 27  1  0  0  0  0
 23 24  1  0  0  0  0
 23 25  1  0  0  0  0
 24 54  1  0  0  0  0
 24 55  1  0  0  0  0
 24 56  1  0  0  0  0
 25 26  2  0  0  0  0
 26 57  1  0  0  0  0
 26 27  1  0  0  0  0
 28 58  1  0  0  0  0
 28 29  1  0  0  0  0
 29 59  1  0  0  0  0
 31 30  1  0  0  0  0
 30 60  1  0  0  0  0
 30 61  1  0  0  0  0
 31 33  1  0  0  0  0
 31 62  1  0  0  0  0
 31 32  1  0  0  0  0
 32 63  1  0  0  0  0
 33 64  1  0  0  0  0
 33 65  1  0  0  0  0
M  ZZC   1 c1
M  ZZC   2 c2
M  ZZC   3 o1
M  ZZC   4 n1
M  ZZC   5 c3
M  ZZC   6 c4
M  ZZC   7 c5
M  ZZC   8 c6
M  ZZC   9 c7
M  ZZC  10 c8
M  ZZC  11 o2
M  ZZC  12 n2
M  ZZC  13 c9
M  ZZC  14 c10
M  ZZC  15 o3
M  ZZC  16 n3
M  ZZC  17 c11
M  ZZC  18 c12
M  ZZC  19 c13
M  ZZC  20 c14
M  ZZC  21 c15
M  ZZC  22 c16
M  ZZC  23 c17
M  ZZC  24 c18
M  ZZC  25 n4
M  ZZC  26 c19
M  ZZC  27 s1
M  ZZC  28 c20
M  ZZC  29 c21
M  ZZC  30 c22
M  ZZC  31 c23
M  ZZC  32 o4
M  ZZC  33 c24
M  ZZC  34 h11
M  ZZC  35 h12
M  ZZC  36 h13
M  ZZC  37 h01
M  ZZC  38 h31
M  ZZC  39 h51
M  ZZC  40 h52
M  ZZC  41 h53
M  ZZC  42 h61
M  ZZC  43 h62
M  ZZC  44 h63
M  ZZC  45 h71
M  ZZC  46 h72
M  ZZC  47 h73
M  ZZC  48 h91
M  ZZC  49 h02
M  ZZC  50 h111
M  ZZC  51 h112
M  ZZC  52 h131
M  ZZC  53 h141
M  ZZC  54 h181
M  ZZC  55 h182
M  ZZC  56 h183
M  ZZC  57 h191
M  ZZC  58 h201
M  ZZC  59 h211
M  ZZC  60 h221
M  ZZC  61 h222
M  ZZC  62 h231
M  ZZC  63 h41
M  ZZC  64 h241
M  ZZC  65 h242
M  ZZM   1 1
M  ZZI   1 111
M  ZZM   2 3
M  ZZI   2 121
M  ZZM   3 7
M  ZZI   3 81
M  ZZM   4 10
M  ZZI   4 211
M  ZZM   5 1
M  ZZI   5 113
M  ZZM   6 1
M  ZZI   6 110
M  ZZM   7 1
M  ZZI   7 111
M  ZZM   8 1
M  ZZI   8 111
M  ZZM   9 1
M  ZZI   9 111
M  ZZM  10 3
M  ZZI  10 121
M  ZZM  11 7
M  ZZI  11 81
M  ZZM  12 10
M  ZZI  12 192
M  ZZM  13 1
M  ZZI  13 113
M  ZZM  14 3
M  ZZI  14 121
M  ZZM  15 7
M  ZZI  15 81
M  ZZM  16 10
M  ZZI  16 211
M  ZZM  17 1
M  ZZI  17 112
M  ZZM  18 37
M  ZZI  18 124
M  ZZM  19 37
M  ZZI  19 125
M  ZZM  20 37
M  ZZI  20 125
M  ZZM  21 37
M  ZZI  21 124
M  ZZM  22 63
M  ZZI  22 104
M  ZZM  23 64
M  ZZI  23 105
M  ZZM  24 1
M  ZZI  24 111
M  ZZM  25 66
M  ZZI  25 222
M  ZZM  26 63
M  ZZI  26 104
M  ZZM  27 44
M  ZZI  27 248
M  ZZM  28 37
M  ZZI  28 125
M  ZZM  29 37
M  ZZI  29 125
M  ZZM  30 1
M  ZZI  30 112
M  ZZM  31 1
M  ZZI  31 113
M  ZZM  32 6
M  ZZI  32 60
M  ZZM  33 1
M  ZZI  33 112
M  ZZM  34 5
M  ZZI  34 1
M  ZZM  35 5
M  ZZI  35 1
M  ZZM  36 5
M  ZZI  36 1
M  ZZM  37 28
M  ZZI  37 11
M  ZZM  38 5
M  ZZI  38 1
M  ZZM  39 5
M  ZZI  39 1
M  ZZM  40 5
M  ZZI  40 1
M  ZZM  41 5
M  ZZI  41 1
M  ZZM  42 5
M  ZZI  42 1
M  ZZM  43 5
M  ZZI  43 1
M  ZZM  44 5
M  ZZI  44 1
M  ZZM  45 5
M  ZZI  45 1
M  ZZM  46 5
M  ZZI  46 1
M  ZZM  47 5
M  ZZI  47 1
M  ZZM  48 5
M  ZZI  48 1
M  ZZM  49 28
M  ZZI  49 11
M  ZZM  50 5
M  ZZI  50 1
M  ZZM  51 5
M  ZZI  51 1
M  ZZM  52 5
M  ZZI  52 1
M  ZZM  53 5
M  ZZI  53 1
M  ZZM  54 5
M  ZZI  54 1
M  ZZM  55 5
M  ZZI  55 1
M  ZZM  56 5
M  ZZI  56 1
M  ZZM  57 5
M  ZZI  57 1
M  ZZM  58 5
M  ZZI  58 1
M  ZZM  59 5
M  ZZI  59 1
M  ZZM  60 5
M  ZZI  60 1
M  ZZM  61 5
M  ZZI  61 1
M  ZZM  62 5
M  ZZI  62 1
M  ZZM  63 21
M  ZZI  63 20
M  ZZM  64 5
M  ZZI  64 1
M  ZZM  65 5
M  ZZI  65 1
M  END
> <IX>
1

> <NAME>
VHL_4IM0_16.pdb

> <Score>
-11.148764

> <Natom>
65

> <Nflex>
8

> <Hbond>
-4.966158

> <Hphob>
-6.451702

> <VwInt>
-28.070208

> <Dsolv>
16.726508

> <SolEl>
17.020121

> <Eintl>
8.717174

> <RecConf>
ND

> <projPath>
VHL_maps/

> <NAME_>
VHL_4IM0_16.pdb

$$$$
