VHL_3K6P_4.pdb
  MOLSOFT 04032206363D

 61 63  0  0  1  0  0  0  0  0999 V2000
   16.8880   -4.8711   -4.4511 N   0  3  0  0  0  0  0  0  0  0  0  0
   16.1135   -3.5964   -4.1679 C   0  0  1  0  0  0  0  0  0  0  0  0
   15.8393   -3.4261   -2.6410 C   0  0  0  0  0  0  0  0  0  0  0  0
   15.2569   -4.7250   -2.0646 C   0  0  0  0  0  0  0  0  0  0  0  0
   14.8033   -2.3193   -2.3942 C   0  0  0  0  0  0  0  0  0  0  0  0
   17.1052   -3.0638   -1.8525 C   0  0  0  0  0  0  0  0  0  0  0  0
   16.8669   -2.4283   -4.8225 C   0  0  0  0  0  0  0  0  0  0  0  0
   18.0852   -2.3620   -4.7435 O   0  0  0  0  0  0  0  0  0  0  0  0
   16.1420   -1.4832   -5.5425 N   0  0  0  0  0  0  0  0  0  0  0  0
   16.8418   -0.4731   -6.3244 C   0  0  2  0  0  0  0  0  0  0  0  0
   17.4452    0.6189   -5.4425 C   0  0  0  0  0  0  0  0  0  0  0  0
   17.0586    0.8401   -4.3026 O   0  0  0  0  0  0  0  0  0  0  0  0
   18.3964    1.3778   -6.1016 N   0  0  0  0  0  0  0  0  0  0  0  0
   18.7989    2.6850   -5.6196 C   0  0  0  0  0  0  0  0  0  0  0  0
   17.7877    3.6962   -6.0908 C   0  0  0  0  0  0  0  0  0  0  0  0
   17.9859    4.4291   -7.2579 C   0  0  0  0  0  0  0  0  0  0  0  0
   16.9427    5.1502   -7.8172 C   0  0  0  0  0  0  0  0  0  0  0  0
   15.6821    5.1126   -7.2333 C   0  0  0  0  0  0  0  0  0  0  0  0
   14.5170    5.6487   -7.9023 C   0  0  0  0  0  0  0  0  0  0  0  0
   13.4752    4.9712   -8.5196 C   0  0  0  0  0  0  0  0  0  0  0  0
   13.3597    3.5065   -8.7235 C   0  0  0  0  0  0  0  0  0  0  0  0
   12.4438    5.7738   -8.9505 N   0  0  0  0  0  0  0  0  0  0  0  0
   12.7459    7.0303   -8.7088 C   0  0  0  0  0  0  0  0  0  0  0  0
   14.2448    7.3383   -7.9599 S   0  0  0  0  0  0  0  0  0  0  0  0
   15.5137    4.4739   -6.0154 C   0  0  0  0  0  0  0  0  0  0  0  0
   16.5624    3.7923   -5.4396 C   0  0  0  0  0  0  0  0  0  0  0  0
   15.7830    0.0917   -7.2671 C   0  0  0  0  0  0  0  0  0  0  0  0
   14.4918   -0.1004   -6.4930 C   0  0  1  0  0  0  0  0  0  0  0  0
   13.3729   -0.1455   -7.3750 O   0  0  0  0  0  0  0  0  0  0  0  0
   14.7191   -1.4356   -5.8052 C   0  0  0  0  0  0  0  0  0  0  0  0
   17.0208   -4.9958   -5.4633 H   0  0  0  0  0  0  0  0  0  0  0  0
   16.4257   -5.7259   -4.1106 H   0  0  0  0  0  0  0  0  0  0  0  0
   17.8404   -4.8385   -4.0539 H   0  0  0  0  0  0  0  0  0  0  0  0
   15.1587   -3.7409   -4.6721 H   0  0  0  0  0  0  0  0  0  0  0  0
   14.9407   -4.5887   -1.0271 H   0  0  0  0  0  0  0  0  0  0  0  0
   15.9862   -5.5371   -2.0693 H   0  0  0  0  0  0  0  0  0  0  0  0
   14.3849   -5.0619   -2.6341 H   0  0  0  0  0  0  0  0  0  0  0  0
   15.1564   -1.3508   -2.7634 H   0  0  0  0  0  0  0  0  0  0  0  0
   14.5988   -2.1961   -1.3261 H   0  0  0  0  0  0  0  0  0  0  0  0
   13.8566   -2.5244   -2.9024 H   0  0  0  0  0  0  0  0  0  0  0  0
   16.9125   -3.0403   -0.7750 H   0  0  0  0  0  0  0  0  0  0  0  0
   17.4924   -2.0784   -2.1295 H   0  0  0  0  0  0  0  0  0  0  0  0
   17.8997   -3.7876   -2.0213 H   0  0  0  0  0  0  0  0  0  0  0  0
   17.6459   -0.9483   -6.8840 H   0  0  0  0  0  0  0  0  0  0  0  0
   18.7271    1.0789   -7.0142 H   0  0  0  0  0  0  0  0  0  0  0  0
   18.8645    2.6785   -4.5258 H   0  0  0  0  0  0  0  0  0  0  0  0
   19.7955    2.9016   -6.0182 H   0  0  0  0  0  0  0  0  0  0  0  0
   18.9413    4.3955   -7.7734 H   0  0  0  0  0  0  0  0  0  0  0  0
   17.1031    5.6922   -8.7453 H   0  0  0  0  0  0  0  0  0  0  0  0
   12.4454    3.2642   -9.2724 H   0  0  0  0  0  0  0  0  0  0  0  0
   13.3178    2.9745   -7.7691 H   0  0  0  0  0  0  0  0  0  0  0  0
   14.2120    3.1187   -9.2878 H   0  0  0  0  0  0  0  0  0  0  0  0
   12.0873    7.8425   -8.9582 H   0  0  0  0  0  0  0  0  0  0  0  0
   14.5425    4.4613   -5.5278 H   0  0  0  0  0  0  0  0  0  0  0  0
   16.3867    3.2605   -4.5095 H   0  0  0  0  0  0  0  0  0  0  0  0
   15.9404    1.1384   -7.5472 H   0  0  0  0  0  0  0  0  0  0  0  0
   15.7525   -0.4837   -8.2003 H   0  0  0  0  0  0  0  0  0  0  0  0
   14.3548    0.7104   -5.7674 H   0  0  0  0  0  0  0  0  0  0  0  0
   12.5693    0.0190   -6.8503 H   0  0  0  0  0  0  0  0  0  0  0  0
   14.4796   -2.2682   -6.4690 H   0  0  0  0  0  0  0  0  0  0  0  0
   14.1251   -1.5468   -4.8975 H   0  0  0  0  0  0  0  0  0  0  0  0
  1 31  1  0  0  0  0
  1 32  1  0  0  0  0
  1 33  1  0  0  0  0
  2  1  1  0  0  0  0
  2 34  1  0  0  0  0
  2  3  1  0  0  0  0
  2  7  1  0  0  0  0
  3  4  1  0  0  0  0
  3  5  1  0  0  0  0
  3  6  1  0  0  0  0
  4 35  1  0  0  0  0
  4 36  1  0  0  0  0
  4 37  1  0  0  0  0
  5 38  1  0  0  0  0
  5 39  1  0  0  0  0
  5 40  1  0  0  0  0
  6 41  1  0  0  0  0
  6 42  1  0  0  0  0
  6 43  1  0  0  0  0
  7  8  2  0  0  0  0
  7  9  1  0  0  0  0
  9 30  1  0  0  0  0
 10  9  1  0  0  0  0
 10 27  1  0  0  0  0
 10 44  1  0  0  0  0
 10 11  1  0  0  0  0
 11 12  2  0  0  0  0
 11 13  1  0  0  0  0
 13 45  1  0  0  0  0
 13 14  1  0  0  0  0
 14 46  1  0  0  0  0
 14 47  1  0  0  0  0
 14 15  1  0  0  0  0
 15 16  1  0  0  0  0
 15 26  2  0  0  0  0
 16 48  1  0  0  0  0
 16 17  2  0  0  0  0
 17 49  1  0  0  0  0
 17 18  1  0  0  0  0
 18 25  2  0  0  0  0
 18 19  1  0  0  0  0
 19 20  2  0  0  0  0
 19 24  1  0  0  0  0
 20 21  1  0  0  0  0
 20 22  1  0  0  0  0
 21 50  1  0  0  0  0
 21 51  1  0  0  0  0
 21 52  1  0  0  0  0
 22 23  2  0  0  0  0
 23 53  1  0  0  0  0
 23 24  1  0  0  0  0
 25 54  1  0  0  0  0
 25 26  1  0  0  0  0
 26 55  1  0  0  0  0
 28 27  1  0  0  0  0
 27 56  1  0  0  0  0
 27 57  1  0  0  0  0
 28 30  1  0  0  0  0
 28 58  1  0  0  0  0
 28 29  1  0  0  0  0
 29 59  1  0  0  0  0
 30 60  1  0  0  0  0
 30 61  1  0  0  0  0
M  ZZC   1 n1
M  ZZC   2 c1
M  ZZC   3 c2
M  ZZC   4 c3
M  ZZC   5 c4
M  ZZC   6 c5
M  ZZC   7 c6
M  ZZC   8 o1
M  ZZC   9 n2
M  ZZC  10 c7
M  ZZC  11 c8
M  ZZC  12 o2
M  ZZC  13 n3
M  ZZC  14 c9
M  ZZC  15 c10
M  ZZC  16 c11
M  ZZC  17 c12
M  ZZC  18 c13
M  ZZC  19 c14
M  ZZC  20 c15
M  ZZC  21 c16
M  ZZC  22 n4
M  ZZC  23 c17
M  ZZC  24 s1
M  ZZC  25 c18
M  ZZC  26 c19
M  ZZC  27 c20
M  ZZC  28 c21
M  ZZC  29 o3
M  ZZC  30 c22
M  ZZC  31 h11
M  ZZC  32 h12
M  ZZC  33 h13
M  ZZC  34 h01
M  ZZC  35 h31
M  ZZC  36 h32
M  ZZC  37 h33
M  ZZC  38 h41
M  ZZC  39 h42
M  ZZC  40 h43
M  ZZC  41 h51
M  ZZC  42 h52
M  ZZC  43 h53
M  ZZC  44 h71
M  ZZC  45 h02
M  ZZC  46 h91
M  ZZC  47 h92
M  ZZC  48 h111
M  ZZC  49 h121
M  ZZC  50 h161
M  ZZC  51 h162
M  ZZC  52 h163
M  ZZC  53 h171
M  ZZC  54 h181
M  ZZC  55 h191
M  ZZC  56 h201
M  ZZC  57 h202
M  ZZC  58 h211
M  ZZC  59 h03
M  ZZC  60 h221
M  ZZC  61 h222
M  ZZM   1 34
M  ZZI   1 231
M  ZZM   2 1
M  ZZI   2 113
M  ZZM   3 1
M  ZZI   3 110
M  ZZM   4 1
M  ZZI   4 111
M  ZZM   5 1
M  ZZI   5 111
M  ZZM   6 1
M  ZZI   6 111
M  ZZM   7 3
M  ZZI   7 121
M  ZZM   8 7
M  ZZI   8 81
M  ZZM   9 10
M  ZZI   9 192
M  ZZM  10 1
M  ZZI  10 113
M  ZZM  11 3
M  ZZI  11 121
M  ZZM  12 7
M  ZZI  12 81
M  ZZM  13 10
M  ZZI  13 211
M  ZZM  14 1
M  ZZI  14 112
M  ZZM  15 37
M  ZZI  15 124
M  ZZM  16 37
M  ZZI  16 125
M  ZZM  17 37
M  ZZI  17 125
M  ZZM  18 37
M  ZZI  18 124
M  ZZM  19 63
M  ZZI  19 104
M  ZZM  20 64
M  ZZI  20 105
M  ZZM  21 1
M  ZZI  21 111
M  ZZM  22 66
M  ZZI  22 222
M  ZZM  23 63
M  ZZI  23 104
M  ZZM  24 44
M  ZZI  24 248
M  ZZM  25 37
M  ZZI  25 125
M  ZZM  26 37
M  ZZI  26 125
M  ZZM  27 1
M  ZZI  27 112
M  ZZM  28 1
M  ZZI  28 113
M  ZZM  29 6
M  ZZI  29 60
M  ZZM  30 1
M  ZZI  30 112
M  ZZM  31 36
M  ZZI  31 17
M  ZZM  32 36
M  ZZI  32 17
M  ZZM  33 36
M  ZZI  33 17
M  ZZM  34 5
M  ZZI  34 1
M  ZZM  35 5
M  ZZI  35 1
M  ZZM  36 5
M  ZZI  36 1
M  ZZM  37 5
M  ZZI  37 1
M  ZZM  38 5
M  ZZI  38 1
M  ZZM  39 5
M  ZZI  39 1
M  ZZM  40 5
M  ZZI  40 1
M  ZZM  41 5
M  ZZI  41 1
M  ZZM  42 5
M  ZZI  42 1
M  ZZM  43 5
M  ZZI  43 1
M  ZZM  44 5
M  ZZI  44 1
M  ZZM  45 28
M  ZZI  45 11
M  ZZM  46 5
M  ZZI  46 1
M  ZZM  47 5
M  ZZI  47 1
M  ZZM  48 5
M  ZZI  48 1
M  ZZM  49 5
M  ZZI  49 1
M  ZZM  50 5
M  ZZI  50 1
M  ZZM  51 5
M  ZZI  51 1
M  ZZM  52 5
M  ZZI  52 1
M  ZZM  53 5
M  ZZI  53 1
M  ZZM  54 5
M  ZZI  54 1
M  ZZM  55 5
M  ZZI  55 1
M  ZZM  56 5
M  ZZI  56 1
M  ZZM  57 5
M  ZZI  57 1
M  ZZM  58 5
M  ZZI  58 1
M  ZZM  59 21
M  ZZI  59 20
M  ZZM  60 5
M  ZZI  60 1
M  ZZM  61 5
M  ZZI  61 1
M  CHG  1   1   1
M  END
> <IX>
1

> <NAME>
VHL_3K6P_4.pdb

> <Score>
-2.244114

> <Natom>
61

> <Nflex>
7

> <Hbond>
-5.614427

> <Hphob>
-5.973836

> <VwInt>
-26.003203

> <Dsolv>
21.607426

> <SolEl>
25.354316

> <Eintl>
8.044404

> <RecConf>
ND

> <projPath>
VHL_maps/

> <NAME_>
VHL_3K6P_4.pdb

$$$$
