VHL_4IM0_19.pdb
  MOLSOFT 04032206383D

 65 67  0  0  1  0  0  0  0  0999 V2000
   18.0930   -6.8325   -5.1355 C   0  0  0  0  0  0  0  0  0  0  0  0
   16.8867   -5.9437   -5.0053 C   0  0  0  0  0  0  0  0  0  0  0  0
   15.8148   -6.2724   -5.4834 O   0  0  0  0  0  0  0  0  0  0  0  0
   17.1216   -4.7914   -4.2823 N   0  0  0  0  0  0  0  0  0  0  0  0
   16.1222   -3.7404   -4.0288 C   0  0  1  0  0  0  0  0  0  0  0  0
   15.8513   -3.5481   -2.5082 C   0  0  0  0  0  0  0  0  0  0  0  0
   17.1020   -3.0985   -1.7398 C   0  0  0  0  0  0  0  0  0  0  0  0
   15.3602   -4.8867   -1.9516 C   0  0  0  0  0  0  0  0  0  0  0  0
   14.7493   -2.5230   -2.2190 C   0  0  0  0  0  0  0  0  0  0  0  0
   16.6657   -2.5132   -4.7811 C   0  0  0  0  0  0  0  0  0  0  0  0
   17.8683   -2.2788   -4.8115 O   0  0  0  0  0  0  0  0  0  0  0  0
   15.7532   -1.6981   -5.4540 N   0  0  0  0  0  0  0  0  0  0  0  0
   16.2177   -0.7452   -6.4450 C   0  0  2  0  0  0  0  0  0  0  0  0
   16.7283    0.5322   -5.7786 C   0  0  0  0  0  0  0  0  0  0  0  0
   16.2591    0.9708   -4.7367 O   0  0  0  0  0  0  0  0  0  0  0  0
   17.7345    1.1539   -6.4943 N   0  0  0  0  0  0  0  0  0  0  0  0
   18.3787    2.3682   -6.0381 C   0  0  0  0  0  0  0  0  0  0  0  0
   17.7101    3.6038   -6.5817 C   0  0  0  0  0  0  0  0  0  0  0  0
   18.3237    4.3818   -7.5579 C   0  0  0  0  0  0  0  0  0  0  0  0
   17.7007    5.5157   -8.0535 C   0  0  0  0  0  0  0  0  0  0  0  0
   16.4461    5.9022   -7.5878 C   0  0  0  0  0  0  0  0  0  0  0  0
   15.7754    7.0933   -8.0928 C   0  0  0  0  0  0  0  0  0  0  0  0
   14.4724    7.2765   -8.5390 C   0  0  0  0  0  0  0  0  0  0  0  0
   13.4125    6.2509   -8.6660 C   0  0  0  0  0  0  0  0  0  0  0  0
   14.1550    8.5687   -8.8943 N   0  0  0  0  0  0  0  0  0  0  0  0
   15.2090    9.3407   -8.7552 C   0  0  0  0  0  0  0  0  0  0  0  0
   16.6206    8.5912   -8.1650 S   0  0  0  0  0  0  0  0  0  0  0  0
   15.8366    5.1231   -6.6121 C   0  0  0  0  0  0  0  0  0  0  0  0
   16.4599    3.9953   -6.1156 C   0  0  0  0  0  0  0  0  0  0  0  0
   15.0029   -0.4968   -7.3252 C   0  0  0  0  0  0  0  0  0  0  0  0
   13.8205   -0.6664   -6.3823 C   0  0  1  0  0  0  0  0  0  0  0  0
   12.6804   -1.2028   -7.0501 O   0  0  0  0  0  0  0  0  0  0  0  0
   14.3072   -1.6517   -5.3326 C   0  0  0  0  0  0  0  0  0  0  0  0
   19.0134   -6.2430   -5.1872 H   0  0  0  0  0  0  0  0  0  0  0  0
   18.0112   -7.4255   -6.0511 H   0  0  0  0  0  0  0  0  0  0  0  0
   18.1330   -7.5041   -4.2745 H   0  0  0  0  0  0  0  0  0  0  0  0
   18.0786   -4.6014   -4.0051 H   0  0  0  0  0  0  0  0  0  0  0  0
   15.1931   -4.0604   -4.4996 H   0  0  0  0  0  0  0  0  0  0  0  0
   16.9057   -3.0244   -0.6653 H   0  0  0  0  0  0  0  0  0  0  0  0
   17.4529   -2.1169   -2.0733 H   0  0  0  0  0  0  0  0  0  0  0  0
   17.9252   -3.7980   -1.8631 H   0  0  0  0  0  0  0  0  0  0  0  0
   15.0985   -4.7960   -0.8959 H   0  0  0  0  0  0  0  0  0  0  0  0
   16.1191   -5.6653   -2.0461 H   0  0  0  0  0  0  0  0  0  0  0  0
   14.4682   -5.2397   -2.4790 H   0  0  0  0  0  0  0  0  0  0  0  0
   15.0551   -1.5114   -2.4994 H   0  0  0  0  0  0  0  0  0  0  0  0
   14.5098   -2.4860   -1.1511 H   0  0  0  0  0  0  0  0  0  0  0  0
   13.8211   -2.7759   -2.7403 H   0  0  0  0  0  0  0  0  0  0  0  0
   17.0309   -1.1906   -7.0247 H   0  0  0  0  0  0  0  0  0  0  0  0
   18.0899    0.7175   -7.3390 H   0  0  0  0  0  0  0  0  0  0  0  0
   18.3837    2.3951   -4.9428 H   0  0  0  0  0  0  0  0  0  0  0  0
   19.4230    2.3177   -6.3639 H   0  0  0  0  0  0  0  0  0  0  0  0
   19.3027    4.1102   -7.9418 H   0  0  0  0  0  0  0  0  0  0  0  0
   18.2069    6.0950   -8.8209 H   0  0  0  0  0  0  0  0  0  0  0  0
   12.6358    6.5622   -9.3709 H   0  0  0  0  0  0  0  0  0  0  0  0
   12.9278    6.0719   -7.7034 H   0  0  0  0  0  0  0  0  0  0  0  0
   13.8358    5.3039   -9.0093 H   0  0  0  0  0  0  0  0  0  0  0  0
   15.1944   10.3934   -8.9963 H   0  0  0  0  0  0  0  0  0  0  0  0
   14.8659    5.3981   -6.2099 H   0  0  0  0  0  0  0  0  0  0  0  0
   15.9558    3.4216   -5.3441 H   0  0  0  0  0  0  0  0  0  0  0  0
   15.0057    0.4870   -7.8062 H   0  0  0  0  0  0  0  0  0  0  0  0
   14.9589   -1.2465   -8.1230 H   0  0  0  0  0  0  0  0  0  0  0  0
   13.5405    0.2871   -5.9201 H   0  0  0  0  0  0  0  0  0  0  0  0
   12.4153   -0.5807   -7.7510 H   0  0  0  0  0  0  0  0  0  0  0  0
   13.8717   -2.6473   -5.4231 H   0  0  0  0  0  0  0  0  0  0  0  0
   14.0462   -1.2640   -4.3491 H   0  0  0  0  0  0  0  0  0  0  0  0
  1 34  1  0  0  0  0
  1 35  1  0  0  0  0
  1 36  1  0  0  0  0
  1  2  1  0  0  0  0
  2  3  2  0  0  0  0
  2  4  1  0  0  0  0
  4 37  1  0  0  0  0
  5  4  1  0  0  0  0
  5 38  1  0  0  0  0
  5  6  1  0  0  0  0
  5 10  1  0  0  0  0
  6  7  1  0  0  0  0
  6  8  1  0  0  0  0
  6  9  1  0  0  0  0
  7 39  1  0  0  0  0
  7 40  1  0  0  0  0
  7 41  1  0  0  0  0
  8 42  1  0  0  0  0
  8 43  1  0  0  0  0
  8 44  1  0  0  0  0
  9 45  1  0  0  0  0
  9 46  1  0  0  0  0
  9 47  1  0  0  0  0
 10 11  2  0  0  0  0
 10 12  1  0  0  0  0
 12 33  1  0  0  0  0
 13 12  1  0  0  0  0
 13 30  1  0  0  0  0
 13 48  1  0  0  0  0
 13 14  1  0  0  0  0
 14 15  2  0  0  0  0
 14 16  1  0  0  0  0
 16 49  1  0  0  0  0
 16 17  1  0  0  0  0
 17 50  1  0  0  0  0
 17 51  1  0  0  0  0
 17 18  1  0  0  0  0
 18 19  1  0  0  0  0
 18 29  2  0  0  0  0
 19 52  1  0  0  0  0
 19 20  2  0  0  0  0
 20 53  1  0  0  0  0
 20 21  1  0  0  0  0
 21 28  2  0  0  0  0
 21 22  1  0  0  0  0
 22 23  2  0  0  0  0
 22 27  1  0  0  0  0
 23 24  1  0  0  0  0
 23 25  1  0  0  0  0
 24 54  1  0  0  0  0
 24 55  1  0  0  0  0
 24 56  1  0  0  0  0
 25 26  2  0  0  0  0
 26 57  1  0  0  0  0
 26 27  1  0  0  0  0
 28 58  1  0  0  0  0
 28 29  1  0  0  0  0
 29 59  1  0  0  0  0
 31 30  1  0  0  0  0
 30 60  1  0  0  0  0
 30 61  1  0  0  0  0
 31 33  1  0  0  0  0
 31 62  1  0  0  0  0
 31 32  1  0  0  0  0
 32 63  1  0  0  0  0
 33 64  1  0  0  0  0
 33 65  1  0  0  0  0
M  ZZC   1 c1
M  ZZC   2 c2
M  ZZC   3 o1
M  ZZC   4 n1
M  ZZC   5 c3
M  ZZC   6 c4
M  ZZC   7 c5
M  ZZC   8 c6
M  ZZC   9 c7
M  ZZC  10 c8
M  ZZC  11 o2
M  ZZC  12 n2
M  ZZC  13 c9
M  ZZC  14 c10
M  ZZC  15 o3
M  ZZC  16 n3
M  ZZC  17 c11
M  ZZC  18 c12
M  ZZC  19 c13
M  ZZC  20 c14
M  ZZC  21 c15
M  ZZC  22 c16
M  ZZC  23 c17
M  ZZC  24 c18
M  ZZC  25 n4
M  ZZC  26 c19
M  ZZC  27 s1
M  ZZC  28 c20
M  ZZC  29 c21
M  ZZC  30 c22
M  ZZC  31 c23
M  ZZC  32 o4
M  ZZC  33 c24
M  ZZC  34 h11
M  ZZC  35 h12
M  ZZC  36 h13
M  ZZC  37 h01
M  ZZC  38 h31
M  ZZC  39 h51
M  ZZC  40 h52
M  ZZC  41 h53
M  ZZC  42 h61
M  ZZC  43 h62
M  ZZC  44 h63
M  ZZC  45 h71
M  ZZC  46 h72
M  ZZC  47 h73
M  ZZC  48 h91
M  ZZC  49 h02
M  ZZC  50 h111
M  ZZC  51 h112
M  ZZC  52 h131
M  ZZC  53 h141
M  ZZC  54 h181
M  ZZC  55 h182
M  ZZC  56 h183
M  ZZC  57 h191
M  ZZC  58 h201
M  ZZC  59 h211
M  ZZC  60 h221
M  ZZC  61 h222
M  ZZC  62 h231
M  ZZC  63 h41
M  ZZC  64 h241
M  ZZC  65 h242
M  ZZM   1 1
M  ZZI   1 111
M  ZZM   2 3
M  ZZI   2 121
M  ZZM   3 7
M  ZZI   3 81
M  ZZM   4 10
M  ZZI   4 211
M  ZZM   5 1
M  ZZI   5 113
M  ZZM   6 1
M  ZZI   6 110
M  ZZM   7 1
M  ZZI   7 111
M  ZZM   8 1
M  ZZI   8 111
M  ZZM   9 1
M  ZZI   9 111
M  ZZM  10 3
M  ZZI  10 121
M  ZZM  11 7
M  ZZI  11 81
M  ZZM  12 10
M  ZZI  12 192
M  ZZM  13 1
M  ZZI  13 113
M  ZZM  14 3
M  ZZI  14 121
M  ZZM  15 7
M  ZZI  15 81
M  ZZM  16 10
M  ZZI  16 211
M  ZZM  17 1
M  ZZI  17 112
M  ZZM  18 37
M  ZZI  18 124
M  ZZM  19 37
M  ZZI  19 125
M  ZZM  20 37
M  ZZI  20 125
M  ZZM  21 37
M  ZZI  21 124
M  ZZM  22 63
M  ZZI  22 104
M  ZZM  23 64
M  ZZI  23 105
M  ZZM  24 1
M  ZZI  24 111
M  ZZM  25 66
M  ZZI  25 222
M  ZZM  26 63
M  ZZI  26 104
M  ZZM  27 44
M  ZZI  27 248
M  ZZM  28 37
M  ZZI  28 125
M  ZZM  29 37
M  ZZI  29 125
M  ZZM  30 1
M  ZZI  30 112
M  ZZM  31 1
M  ZZI  31 113
M  ZZM  32 6
M  ZZI  32 60
M  ZZM  33 1
M  ZZI  33 112
M  ZZM  34 5
M  ZZI  34 1
M  ZZM  35 5
M  ZZI  35 1
M  ZZM  36 5
M  ZZI  36 1
M  ZZM  37 28
M  ZZI  37 11
M  ZZM  38 5
M  ZZI  38 1
M  ZZM  39 5
M  ZZI  39 1
M  ZZM  40 5
M  ZZI  40 1
M  ZZM  41 5
M  ZZI  41 1
M  ZZM  42 5
M  ZZI  42 1
M  ZZM  43 5
M  ZZI  43 1
M  ZZM  44 5
M  ZZI  44 1
M  ZZM  45 5
M  ZZI  45 1
M  ZZM  46 5
M  ZZI  46 1
M  ZZM  47 5
M  ZZI  47 1
M  ZZM  48 5
M  ZZI  48 1
M  ZZM  49 28
M  ZZI  49 11
M  ZZM  50 5
M  ZZI  50 1
M  ZZM  51 5
M  ZZI  51 1
M  ZZM  52 5
M  ZZI  52 1
M  ZZM  53 5
M  ZZI  53 1
M  ZZM  54 5
M  ZZI  54 1
M  ZZM  55 5
M  ZZI  55 1
M  ZZM  56 5
M  ZZI  56 1
M  ZZM  57 5
M  ZZI  57 1
M  ZZM  58 5
M  ZZI  58 1
M  ZZM  59 5
M  ZZI  59 1
M  ZZM  60 5
M  ZZI  60 1
M  ZZM  61 5
M  ZZI  61 1
M  ZZM  62 5
M  ZZI  62 1
M  ZZM  63 21
M  ZZI  63 20
M  ZZM  64 5
M  ZZI  64 1
M  ZZM  65 5
M  ZZI  65 1
M  END
> <IX>
1

> <NAME>
VHL_4IM0_19.pdb

> <Score>
-4.656409

> <Natom>
65

> <Nflex>
8

> <Hbond>
-5.086126

> <Hphob>
-6.375109

> <VwInt>
-27.548606

> <Dsolv>
22.701517

> <SolEl>
21.852581

> <Eintl>
6.304297

> <RecConf>
ND

> <projPath>
VHL_maps/

> <NAME_>
VHL_4IM0_19.pdb

$$$$
