VHL_1ERR_11.pdb
  MOLSOFT 04032206373D

 68 70  0  0  1  0  0  0  0  0999 V2000
   15.3239   -5.1592   -3.4429 O   0  0  0  0  0  0  0  0  0  0  0  0
   16.4438   -4.9842   -3.8980 C   0  0  0  0  0  0  0  0  0  0  0  0
   17.0641   -3.7538   -3.9708 N   0  0  0  0  0  0  0  0  0  0  0  0
   16.3502   -2.5102   -3.6667 C   0  0  1  0  0  0  0  0  0  0  0  0
   16.6660   -1.9211   -2.2588 C   0  0  0  0  0  0  0  0  0  0  0  0
   18.1174   -1.4378   -2.1287 C   0  0  0  0  0  0  0  0  0  0  0  0
   15.7364   -0.7309   -1.9740 C   0  0  0  0  0  0  0  0  0  0  0  0
   16.4128   -2.9808   -1.1722 C   0  0  0  0  0  0  0  0  0  0  0  0
   16.6720   -1.5618   -4.8412 C   0  0  0  0  0  0  0  0  0  0  0  0
   17.8316   -1.3234   -5.1590 O   0  0  0  0  0  0  0  0  0  0  0  0
   15.5873   -1.0364   -5.5463 N   0  0  0  0  0  0  0  0  0  0  0  0
   15.7731   -0.2759   -6.7764 C   0  0  2  0  0  0  0  0  0  0  0  0
   16.1134    1.1839   -6.4628 C   0  0  0  0  0  0  0  0  0  0  0  0
   15.3007    1.9695   -5.9942 O   0  0  0  0  0  0  0  0  0  0  0  0
   17.4417    1.4940   -6.6872 N   0  0  0  0  0  0  0  0  0  0  0  0
   18.0274    2.7656   -6.2752 C   0  0  1  0  0  0  0  0  0  0  0  0
   18.1655    2.8174   -4.7507 C   0  0  0  0  0  0  0  0  0  0  0  0
   19.3842    3.0370   -6.9003 C   0  0  0  0  0  0  0  0  0  0  0  0
   20.3126    2.0226   -7.1051 C   0  0  0  0  0  0  0  0  0  0  0  0
   21.5855    2.2995   -7.5553 C   0  0  0  0  0  0  0  0  0  0  0  0
   21.9858    3.5962   -7.8279 C   0  0  0  0  0  0  0  0  0  0  0  0
   23.3547    3.8532   -8.2443 C   0  0  0  0  0  0  0  0  0  0  0  0
   24.4637    4.2275   -7.4991 C   0  0  0  0  0  0  0  0  0  0  0  0
   24.5019    4.5124   -6.0468 C   0  0  0  0  0  0  0  0  0  0  0  0
   25.6431    4.3143   -8.2113 N   0  0  0  0  0  0  0  0  0  0  0  0
   25.4190    4.0269   -9.4738 C   0  0  0  0  0  0  0  0  0  0  0  0
   23.8074    3.6478   -9.8879 S   0  0  0  0  0  0  0  0  0  0  0  0
   21.0617    4.6189   -7.6577 C   0  0  0  0  0  0  0  0  0  0  0  0
   19.7799    4.3406   -7.2020 C   0  0  0  0  0  0  0  0  0  0  0  0
   14.4374   -0.4025   -7.4851 C   0  0  0  0  0  0  0  0  0  0  0  0
   13.4173   -0.5348   -6.3657 C   0  0  1  0  0  0  0  0  0  0  0  0
   12.2838   -1.2919   -6.7900 O   0  0  0  0  0  0  0  0  0  0  0  0
   14.1789   -1.2864   -5.2873 C   0  0  0  0  0  0  0  0  0  0  0  0
   17.2687   -6.1207   -4.4437 C   0  0  0  0  0  0  0  0  0  0  0  0
   18.0177   -3.6971   -4.3171 H   0  0  0  0  0  0  0  0  0  0  0  0
   15.2870   -2.7588   -3.6842 H   0  0  0  0  0  0  0  0  0  0  0  0
   18.8224   -2.2285   -2.3875 H   0  0  0  0  0  0  0  0  0  0  0  0
   18.3448   -1.1266   -1.1042 H   0  0  0  0  0  0  0  0  0  0  0  0
   18.3256   -0.5774   -2.7711 H   0  0  0  0  0  0  0  0  0  0  0  0
   14.6834   -1.0303   -2.0015 H   0  0  0  0  0  0  0  0  0  0  0  0
   15.8727    0.0764   -2.7005 H   0  0  0  0  0  0  0  0  0  0  0  0
   15.9243   -0.3053   -0.9829 H   0  0  0  0  0  0  0  0  0  0  0  0
   15.3929   -3.3762   -1.2260 H   0  0  0  0  0  0  0  0  0  0  0  0
   16.5437   -2.5639   -0.1683 H   0  0  0  0  0  0  0  0  0  0  0  0
   17.1033   -3.8254   -1.2558 H   0  0  0  0  0  0  0  0  0  0  0  0
   16.5740   -0.7225   -7.3772 H   0  0  0  0  0  0  0  0  0  0  0  0
   18.0389    0.7735   -7.0809 H   0  0  0  0  0  0  0  0  0  0  0  0
   17.3262    3.5470   -6.5908 H   0  0  0  0  0  0  0  0  0  0  0  0
   18.5908    3.7681   -4.4164 H   0  0  0  0  0  0  0  0  0  0  0  0
   18.8134    2.0171   -4.3791 H   0  0  0  0  0  0  0  0  0  0  0  0
   17.1930    2.7109   -4.2573 H   0  0  0  0  0  0  0  0  0  0  0  0
   20.0643    0.9904   -6.8931 H   0  0  0  0  0  0  0  0  0  0  0  0
   22.2773    1.4768   -7.6833 H   0  0  0  0  0  0  0  0  0  0  0  0
   23.9221    5.4100   -5.8139 H   0  0  0  0  0  0  0  0  0  0  0  0
   25.5280    4.6739   -5.7036 H   0  0  0  0  0  0  0  0  0  0  0  0
   24.0895    3.6779   -5.4742 H   0  0  0  0  0  0  0  0  0  0  0  0
   26.2043    4.0304  -10.2161 H   0  0  0  0  0  0  0  0  0  0  0  0
   21.3402    5.6478   -7.8652 H   0  0  0  0  0  0  0  0  0  0  0  0
   19.0892    5.1657   -7.0548 H   0  0  0  0  0  0  0  0  0  0  0  0
   14.2119    0.4336   -8.1556 H   0  0  0  0  0  0  0  0  0  0  0  0
   14.4452   -1.3171   -8.0857 H   0  0  0  0  0  0  0  0  0  0  0  0
   13.0803    0.4424   -6.0030 H   0  0  0  0  0  0  0  0  0  0  0  0
   11.8167   -0.7836   -7.4786 H   0  0  0  0  0  0  0  0  0  0  0  0
   13.9872   -2.3635   -5.3300 H   0  0  0  0  0  0  0  0  0  0  0  0
   13.9114   -0.9346   -4.2870 H   0  0  0  0  0  0  0  0  0  0  0  0
   16.6864   -6.6502   -5.2039 H   0  0  0  0  0  0  0  0  0  0  0  0
   17.5185   -6.8121   -3.6355 H   0  0  0  0  0  0  0  0  0  0  0  0
   18.1928   -5.7643   -4.9083 H   0  0  0  0  0  0  0  0  0  0  0  0
  1  2  2  0  0  0  0
  2  3  1  0  0  0  0
  2 34  1  0  0  0  0
  4  3  1  0  0  0  0
  3 35  1  0  0  0  0
  4  5  1  0  0  0  0
  4 36  1  0  0  0  0
  4  9  1  0  0  0  0
  5  6  1  0  0  0  0
  5  7  1  0  0  0  0
  5  8  1  0  0  0  0
  6 37  1  0  0  0  0
  6 38  1  0  0  0  0
  6 39  1  0  0  0  0
  7 40  1  0  0  0  0
  7 41  1  0  0  0  0
  7 42  1  0  0  0  0
  8 43  1  0  0  0  0
  8 44  1  0  0  0  0
  8 45  1  0  0  0  0
  9 10  2  0  0  0  0
  9 11  1  0  0  0  0
 11 33  1  0  0  0  0
 12 11  1  0  0  0  0
 12 30  1  0  0  0  0
 12 46  1  0  0  0  0
 12 13  1  0  0  0  0
 13 14  2  0  0  0  0
 13 15  1  0  0  0  0
 15 47  1  0  0  0  0
 16 15  1  0  0  0  0
 16 48  1  0  0  0  0
 16 17  1  0  0  0  0
 16 18  1  0  0  0  0
 17 49  1  0  0  0  0
 17 50  1  0  0  0  0
 17 51  1  0  0  0  0
 18 19  1  0  0  0  0
 18 29  2  0  0  0  0
 19 52  1  0  0  0  0
 19 20  2  0  0  0  0
 20 53  1  0  0  0  0
 20 21  1  0  0  0  0
 21 28  2  0  0  0  0
 21 22  1  0  0  0  0
 22 23  2  0  0  0  0
 22 27  1  0  0  0  0
 23 24  1  0  0  0  0
 23 25  1  0  0  0  0
 24 54  1  0  0  0  0
 24 55  1  0  0  0  0
 24 56  1  0  0  0  0
 25 26  2  0  0  0  0
 26 57  1  0  0  0  0
 26 27  1  0  0  0  0
 28 58  1  0  0  0  0
 28 29  1  0  0  0  0
 29 59  1  0  0  0  0
 31 30  1  0  0  0  0
 30 60  1  0  0  0  0
 30 61  1  0  0  0  0
 31 33  1  0  0  0  0
 31 62  1  0  0  0  0
 31 32  1  0  0  0  0
 32 63  1  0  0  0  0
 33 64  1  0  0  0  0
 33 65  1  0  0  0  0
 34 66  1  0  0  0  0
 34 67  1  0  0  0  0
 34 68  1  0  0  0  0
M  ZZC   1 o1
M  ZZC   2 c1
M  ZZC   3 n1
M  ZZC   4 c2
M  ZZC   5 c3
M  ZZC   6 c4
M  ZZC   7 c5
M  ZZC   8 c6
M  ZZC   9 c7
M  ZZC  10 o2
M  ZZC  11 n2
M  ZZC  12 c8
M  ZZC  13 c9
M  ZZC  14 o3
M  ZZC  15 n3
M  ZZC  16 c10
M  ZZC  17 c11
M  ZZC  18 c12
M  ZZC  19 c13
M  ZZC  20 c14
M  ZZC  21 c15
M  ZZC  22 c16
M  ZZC  23 c17
M  ZZC  24 c18
M  ZZC  25 n4
M  ZZC  26 c19
M  ZZC  27 s1
M  ZZC  28 c20
M  ZZC  29 c21
M  ZZC  30 c22
M  ZZC  31 c23
M  ZZC  32 o4
M  ZZC  33 c24
M  ZZC  34 c25
M  ZZC  35 h11
M  ZZC  36 h21
M  ZZC  37 h41
M  ZZC  38 h42
M  ZZC  39 h43
M  ZZC  40 h51
M  ZZC  41 h52
M  ZZC  42 h53
M  ZZC  43 h61
M  ZZC  44 h62
M  ZZC  45 h63
M  ZZC  46 h81
M  ZZC  47 h31
M  ZZC  48 h101
M  ZZC  49 h111
M  ZZC  50 h112
M  ZZC  51 h113
M  ZZC  52 h131
M  ZZC  53 h141
M  ZZC  54 h181
M  ZZC  55 h182
M  ZZC  56 h183
M  ZZC  57 h191
M  ZZC  58 h201
M  ZZC  59 h211
M  ZZC  60 h221
M  ZZC  61 h222
M  ZZC  62 h231
M  ZZC  63 h01
M  ZZC  64 h241
M  ZZC  65 h242
M  ZZC  66 h251
M  ZZC  67 h252
M  ZZC  68 h253
M  ZZM   1 7
M  ZZI   1 81
M  ZZM   2 3
M  ZZI   2 121
M  ZZM   3 10
M  ZZI   3 211
M  ZZM   4 1
M  ZZI   4 113
M  ZZM   5 1
M  ZZI   5 110
M  ZZM   6 1
M  ZZI   6 111
M  ZZM   7 1
M  ZZI   7 111
M  ZZM   8 1
M  ZZI   8 111
M  ZZM   9 3
M  ZZI   9 121
M  ZZM  10 7
M  ZZI  10 81
M  ZZM  11 10
M  ZZI  11 192
M  ZZM  12 1
M  ZZI  12 113
M  ZZM  13 3
M  ZZI  13 121
M  ZZM  14 7
M  ZZI  14 81
M  ZZM  15 10
M  ZZI  15 211
M  ZZM  16 1
M  ZZI  16 113
M  ZZM  17 1
M  ZZI  17 111
M  ZZM  18 37
M  ZZI  18 124
M  ZZM  19 37
M  ZZI  19 125
M  ZZM  20 37
M  ZZI  20 125
M  ZZM  21 37
M  ZZI  21 124
M  ZZM  22 63
M  ZZI  22 104
M  ZZM  23 64
M  ZZI  23 105
M  ZZM  24 1
M  ZZI  24 111
M  ZZM  25 66
M  ZZI  25 222
M  ZZM  26 63
M  ZZI  26 104
M  ZZM  27 44
M  ZZI  27 248
M  ZZM  28 37
M  ZZI  28 125
M  ZZM  29 37
M  ZZI  29 125
M  ZZM  30 1
M  ZZI  30 112
M  ZZM  31 1
M  ZZI  31 113
M  ZZM  32 6
M  ZZI  32 60
M  ZZM  33 1
M  ZZI  33 112
M  ZZM  34 1
M  ZZI  34 111
M  ZZM  35 28
M  ZZI  35 11
M  ZZM  36 5
M  ZZI  36 1
M  ZZM  37 5
M  ZZI  37 1
M  ZZM  38 5
M  ZZI  38 1
M  ZZM  39 5
M  ZZI  39 1
M  ZZM  40 5
M  ZZI  40 1
M  ZZM  41 5
M  ZZI  41 1
M  ZZM  42 5
M  ZZI  42 1
M  ZZM  43 5
M  ZZI  43 1
M  ZZM  44 5
M  ZZI  44 1
M  ZZM  45 5
M  ZZI  45 1
M  ZZM  46 5
M  ZZI  46 1
M  ZZM  47 28
M  ZZI  47 11
M  ZZM  48 5
M  ZZI  48 1
M  ZZM  49 5
M  ZZI  49 1
M  ZZM  50 5
M  ZZI  50 1
M  ZZM  51 5
M  ZZI  51 1
M  ZZM  52 5
M  ZZI  52 1
M  ZZM  53 5
M  ZZI  53 1
M  ZZM  54 5
M  ZZI  54 1
M  ZZM  55 5
M  ZZI  55 1
M  ZZM  56 5
M  ZZI  56 1
M  ZZM  57 5
M  ZZI  57 1
M  ZZM  58 5
M  ZZI  58 1
M  ZZM  59 5
M  ZZI  59 1
M  ZZM  60 5
M  ZZI  60 1
M  ZZM  61 5
M  ZZI  61 1
M  ZZM  62 5
M  ZZI  62 1
M  ZZM  63 21
M  ZZI  63 20
M  ZZM  64 5
M  ZZI  64 1
M  ZZM  65 5
M  ZZI  65 1
M  ZZM  66 5
M  ZZI  66 1
M  ZZM  67 5
M  ZZI  67 1
M  ZZM  68 5
M  ZZI  68 1
M  END
> <IX>
1

> <NAME>
VHL_1ERR_11.pdb

> <Score>
-17.155206

> <Natom>
68

> <Nflex>
8

> <Hbond>
-6.527146

> <Hphob>
-6.2853

> <VwInt>
-31.928709

> <Dsolv>
18.142861

> <SolEl>
20.865266

> <Eintl>
5.533521

> <RecConf>
ND

> <projPath>
VHL_maps/

> <NAME_>
VHL_1ERR_11.pdb

$$$$
