VHL_5G0I_10.pdb
  MOLSOFT 04032206403D

 65 67  0  0  1  0  0  0  0  0999 V2000
   18.1254   -6.6581   -5.1301 C   0  0  0  0  0  0  0  0  0  0  0  0
   16.9083   -5.7878   -4.9739 C   0  0  0  0  0  0  0  0  0  0  0  0
   15.8232   -6.1494   -5.3959 O   0  0  0  0  0  0  0  0  0  0  0  0
   17.1486   -4.6089   -4.2958 N   0  0  0  0  0  0  0  0  0  0  0  0
   16.1366   -3.5744   -4.0248 C   0  0  1  0  0  0  0  0  0  0  0  0
   15.8864   -3.3951   -2.4982 C   0  0  0  0  0  0  0  0  0  0  0  0
   14.7810   -2.3764   -2.1967 C   0  0  0  0  0  0  0  0  0  0  0  0
   17.1470   -2.9393   -1.7496 C   0  0  0  0  0  0  0  0  0  0  0  0
   15.4143   -4.7392   -1.9302 C   0  0  0  0  0  0  0  0  0  0  0  0
   16.6287   -2.3276   -4.7898 C   0  0  0  0  0  0  0  0  0  0  0  0
   17.8231   -2.0567   -4.8416 O   0  0  0  0  0  0  0  0  0  0  0  0
   15.6759   -1.5564   -5.4635 N   0  0  0  0  0  0  0  0  0  0  0  0
   16.0690   -0.6448   -6.5276 C   0  0  2  0  0  0  0  0  0  0  0  0
   16.4491    0.7490   -6.0203 C   0  0  0  0  0  0  0  0  0  0  0  0
   15.9269    1.2688   -5.0435 O   0  0  0  0  0  0  0  0  0  0  0  0
   17.3804    1.3834   -6.8215 N   0  0  0  0  0  0  0  0  0  0  0  0
   17.8295    2.7402   -6.5557 C   0  0  0  0  0  0  0  0  0  0  0  0
   19.2416    3.0189   -7.0131 C   0  0  0  0  0  0  0  0  0  0  0  0
   19.6588    4.3242   -7.2649 C   0  0  0  0  0  0  0  0  0  0  0  0
   20.9692    4.6017   -7.6297 C   0  0  0  0  0  0  0  0  0  0  0  0
   21.8995    3.5771   -7.7507 C   0  0  0  0  0  0  0  0  0  0  0  0
   23.2842    3.8364   -8.1105 C   0  0  0  0  0  0  0  0  0  0  0  0
   24.3530    4.2557   -7.3313 C   0  0  0  0  0  0  0  0  0  0  0  0
   24.3238    4.5873   -5.8888 C   0  0  0  0  0  0  0  0  0  0  0  0
   25.5617    4.3378   -7.9935 N   0  0  0  0  0  0  0  0  0  0  0  0
   25.3992    4.0033   -9.2538 C   0  0  0  0  0  0  0  0  0  0  0  0
   23.8134    3.5860   -9.7263 S   0  0  0  0  0  0  0  0  0  0  0  0
   21.4848    2.2797   -7.4976 C   0  0  0  0  0  0  0  0  0  0  0  0
   20.1839    2.0045   -7.1307 C   0  0  0  0  0  0  0  0  0  0  0  0
   14.8334   -0.5773   -7.4114 C   0  0  0  0  0  0  0  0  0  0  0  0
   13.6803   -0.6949   -6.4260 C   0  0  1  0  0  0  0  0  0  0  0  0
   12.5405   -1.3144   -7.0160 O   0  0  0  0  0  0  0  0  0  0  0  0
   14.2297   -1.5829   -5.3225 C   0  0  0  0  0  0  0  0  0  0  0  0
   19.0334   -6.0557   -5.2302 H   0  0  0  0  0  0  0  0  0  0  0  0
   18.0198   -7.2727   -6.0292 H   0  0  0  0  0  0  0  0  0  0  0  0
   18.2107   -7.3114   -4.2585 H   0  0  0  0  0  0  0  0  0  0  0  0
   18.1092   -4.3991   -4.0487 H   0  0  0  0  0  0  0  0  0  0  0  0
   15.2077   -3.9194   -4.4785 H   0  0  0  0  0  0  0  0  0  0  0  0
   15.0657   -1.3666   -2.5045 H   0  0  0  0  0  0  0  0  0  0  0  0
   14.5703   -2.3242   -1.1234 H   0  0  0  0  0  0  0  0  0  0  0  0
   13.8411   -2.6494   -2.6860 H   0  0  0  0  0  0  0  0  0  0  0  0
   16.9624   -2.8541   -0.6738 H   0  0  0  0  0  0  0  0  0  0  0  0
   17.4972   -1.9625   -2.0970 H   0  0  0  0  0  0  0  0  0  0  0  0
   17.9661   -3.6453   -1.8722 H   0  0  0  0  0  0  0  0  0  0  0  0
   15.1636   -4.6491   -0.8708 H   0  0  0  0  0  0  0  0  0  0  0  0
   16.1785   -5.5123   -2.0284 H   0  0  0  0  0  0  0  0  0  0  0  0
   14.5189   -5.1014   -2.4454 H   0  0  0  0  0  0  0  0  0  0  0  0
   16.9182   -1.0666   -7.0753 H   0  0  0  0  0  0  0  0  0  0  0  0
   17.7734    0.8835   -7.6140 H   0  0  0  0  0  0  0  0  0  0  0  0
   17.1301    3.4016   -7.0787 H   0  0  0  0  0  0  0  0  0  0  0  0
   17.7493    2.9442   -5.4827 H   0  0  0  0  0  0  0  0  0  0  0  0
   18.9563    5.1473   -7.1720 H   0  0  0  0  0  0  0  0  0  0  0  0
   21.2610    5.6303   -7.8198 H   0  0  0  0  0  0  0  0  0  0  0  0
   25.2905    4.9751   -5.5547 H   0  0  0  0  0  0  0  0  0  0  0  0
   24.0994    3.6989   -5.2939 H   0  0  0  0  0  0  0  0  0  0  0  0
   23.5667    5.3476   -5.6767 H   0  0  0  0  0  0  0  0  0  0  0  0
   26.2170    3.9944   -9.9600 H   0  0  0  0  0  0  0  0  0  0  0  0
   22.1822    1.4560   -7.5862 H   0  0  0  0  0  0  0  0  0  0  0  0
   19.9133    0.9733   -6.9376 H   0  0  0  0  0  0  0  0  0  0  0  0
   14.7685    0.3368   -8.0111 H   0  0  0  0  0  0  0  0  0  0  0  0
   14.8231   -1.4241   -8.1062 H   0  0  0  0  0  0  0  0  0  0  0  0
   13.3847    0.2836   -6.0304 H   0  0  0  0  0  0  0  0  0  0  0  0
   12.1842   -0.7147   -7.6963 H   0  0  0  0  0  0  0  0  0  0  0  0
   13.8470   -2.6041   -5.3574 H   0  0  0  0  0  0  0  0  0  0  0  0
   13.9581   -1.1557   -4.3571 H   0  0  0  0  0  0  0  0  0  0  0  0
  1 34  1  0  0  0  0
  1 35  1  0  0  0  0
  1 36  1  0  0  0  0
  1  2  1  0  0  0  0
  2  3  2  0  0  0  0
  2  4  1  0  0  0  0
  4 37  1  0  0  0  0
  5  4  1  0  0  0  0
  5 38  1  0  0  0  0
  5  6  1  0  0  0  0
  5 10  1  0  0  0  0
  6  7  1  0  0  0  0
  6  8  1  0  0  0  0
  6  9  1  0  0  0  0
  7 39  1  0  0  0  0
  7 40  1  0  0  0  0
  7 41  1  0  0  0  0
  8 42  1  0  0  0  0
  8 43  1  0  0  0  0
  8 44  1  0  0  0  0
  9 45  1  0  0  0  0
  9 46  1  0  0  0  0
  9 47  1  0  0  0  0
 10 11  2  0  0  0  0
 10 12  1  0  0  0  0
 12 33  1  0  0  0  0
 13 12  1  0  0  0  0
 13 30  1  0  0  0  0
 13 48  1  0  0  0  0
 13 14  1  0  0  0  0
 14 15  2  0  0  0  0
 14 16  1  0  0  0  0
 16 49  1  0  0  0  0
 16 17  1  0  0  0  0
 17 50  1  0  0  0  0
 17 51  1  0  0  0  0
 17 18  1  0  0  0  0
 18 19  1  0  0  0  0
 18 29  2  0  0  0  0
 19 52  1  0  0  0  0
 19 20  2  0  0  0  0
 20 53  1  0  0  0  0
 20 21  1  0  0  0  0
 21 28  2  0  0  0  0
 21 22  1  0  0  0  0
 22 23  2  0  0  0  0
 22 27  1  0  0  0  0
 23 24  1  0  0  0  0
 23 25  1  0  0  0  0
 24 54  1  0  0  0  0
 24 55  1  0  0  0  0
 24 56  1  0  0  0  0
 25 26  2  0  0  0  0
 26 57  1  0  0  0  0
 26 27  1  0  0  0  0
 28 58  1  0  0  0  0
 28 29  1  0  0  0  0
 29 59  1  0  0  0  0
 31 30  1  0  0  0  0
 30 60  1  0  0  0  0
 30 61  1  0  0  0  0
 31 33  1  0  0  0  0
 31 62  1  0  0  0  0
 31 32  1  0  0  0  0
 32 63  1  0  0  0  0
 33 64  1  0  0  0  0
 33 65  1  0  0  0  0
M  ZZC   1 c1
M  ZZC   2 c2
M  ZZC   3 o1
M  ZZC   4 n1
M  ZZC   5 c3
M  ZZC   6 c4
M  ZZC   7 c5
M  ZZC   8 c6
M  ZZC   9 c7
M  ZZC  10 c8
M  ZZC  11 o2
M  ZZC  12 n2
M  ZZC  13 c9
M  ZZC  14 c10
M  ZZC  15 o3
M  ZZC  16 n3
M  ZZC  17 c11
M  ZZC  18 c12
M  ZZC  19 c13
M  ZZC  20 c14
M  ZZC  21 c15
M  ZZC  22 c16
M  ZZC  23 c17
M  ZZC  24 c18
M  ZZC  25 n4
M  ZZC  26 c19
M  ZZC  27 s1
M  ZZC  28 c20
M  ZZC  29 c21
M  ZZC  30 c22
M  ZZC  31 c23
M  ZZC  32 o4
M  ZZC  33 c24
M  ZZC  34 h11
M  ZZC  35 h12
M  ZZC  36 h13
M  ZZC  37 h01
M  ZZC  38 h31
M  ZZC  39 h51
M  ZZC  40 h52
M  ZZC  41 h53
M  ZZC  42 h61
M  ZZC  43 h62
M  ZZC  44 h63
M  ZZC  45 h71
M  ZZC  46 h72
M  ZZC  47 h73
M  ZZC  48 h91
M  ZZC  49 h02
M  ZZC  50 h111
M  ZZC  51 h112
M  ZZC  52 h131
M  ZZC  53 h141
M  ZZC  54 h181
M  ZZC  55 h182
M  ZZC  56 h183
M  ZZC  57 h191
M  ZZC  58 h201
M  ZZC  59 h211
M  ZZC  60 h221
M  ZZC  61 h222
M  ZZC  62 h231
M  ZZC  63 h41
M  ZZC  64 h241
M  ZZC  65 h242
M  ZZM   1 1
M  ZZI   1 111
M  ZZM   2 3
M  ZZI   2 121
M  ZZM   3 7
M  ZZI   3 81
M  ZZM   4 10
M  ZZI   4 211
M  ZZM   5 1
M  ZZI   5 113
M  ZZM   6 1
M  ZZI   6 110
M  ZZM   7 1
M  ZZI   7 111
M  ZZM   8 1
M  ZZI   8 111
M  ZZM   9 1
M  ZZI   9 111
M  ZZM  10 3
M  ZZI  10 121
M  ZZM  11 7
M  ZZI  11 81
M  ZZM  12 10
M  ZZI  12 192
M  ZZM  13 1
M  ZZI  13 113
M  ZZM  14 3
M  ZZI  14 121
M  ZZM  15 7
M  ZZI  15 81
M  ZZM  16 10
M  ZZI  16 211
M  ZZM  17 1
M  ZZI  17 112
M  ZZM  18 37
M  ZZI  18 124
M  ZZM  19 37
M  ZZI  19 125
M  ZZM  20 37
M  ZZI  20 125
M  ZZM  21 37
M  ZZI  21 124
M  ZZM  22 63
M  ZZI  22 104
M  ZZM  23 64
M  ZZI  23 105
M  ZZM  24 1
M  ZZI  24 111
M  ZZM  25 66
M  ZZI  25 222
M  ZZM  26 63
M  ZZI  26 104
M  ZZM  27 44
M  ZZI  27 248
M  ZZM  28 37
M  ZZI  28 125
M  ZZM  29 37
M  ZZI  29 125
M  ZZM  30 1
M  ZZI  30 112
M  ZZM  31 1
M  ZZI  31 113
M  ZZM  32 6
M  ZZI  32 60
M  ZZM  33 1
M  ZZI  33 112
M  ZZM  34 5
M  ZZI  34 1
M  ZZM  35 5
M  ZZI  35 1
M  ZZM  36 5
M  ZZI  36 1
M  ZZM  37 28
M  ZZI  37 11
M  ZZM  38 5
M  ZZI  38 1
M  ZZM  39 5
M  ZZI  39 1
M  ZZM  40 5
M  ZZI  40 1
M  ZZM  41 5
M  ZZI  41 1
M  ZZM  42 5
M  ZZI  42 1
M  ZZM  43 5
M  ZZI  43 1
M  ZZM  44 5
M  ZZI  44 1
M  ZZM  45 5
M  ZZI  45 1
M  ZZM  46 5
M  ZZI  46 1
M  ZZM  47 5
M  ZZI  47 1
M  ZZM  48 5
M  ZZI  48 1
M  ZZM  49 28
M  ZZI  49 11
M  ZZM  50 5
M  ZZI  50 1
M  ZZM  51 5
M  ZZI  51 1
M  ZZM  52 5
M  ZZI  52 1
M  ZZM  53 5
M  ZZI  53 1
M  ZZM  54 5
M  ZZI  54 1
M  ZZM  55 5
M  ZZI  55 1
M  ZZM  56 5
M  ZZI  56 1
M  ZZM  57 5
M  ZZI  57 1
M  ZZM  58 5
M  ZZI  58 1
M  ZZM  59 5
M  ZZI  59 1
M  ZZM  60 5
M  ZZI  60 1
M  ZZM  61 5
M  ZZI  61 1
M  ZZM  62 5
M  ZZI  62 1
M  ZZM  63 21
M  ZZI  63 20
M  ZZM  64 5
M  ZZI  64 1
M  ZZM  65 5
M  ZZI  65 1
M  END
> <IX>
1

> <NAME>
VHL_5G0I_10.pdb

> <Score>
-11.725746

> <Natom>
65

> <Nflex>
8

> <Hbond>
-4.963253

> <Hphob>
-6.522882

> <VwInt>
-28.216399

> <Dsolv>
16.694011

> <SolEl>
17.051607

> <Eintl>
8.072406

> <RecConf>
ND

> <projPath>
VHL_maps/

> <NAME_>
VHL_5G0I_10.pdb

$$$$
