VHL_4IM0_2.pdb
  MOLSOFT 04032206393D

 65 67  0  0  1  0  0  0  0  0999 V2000
   18.1119   -6.7043   -5.1249 C   0  0  0  0  0  0  0  0  0  0  0  0
   16.9046   -5.8183   -4.9841 C   0  0  0  0  0  0  0  0  0  0  0  0
   15.8193   -6.1675   -5.4148 O   0  0  0  0  0  0  0  0  0  0  0  0
   17.1542   -4.6413   -4.3060 N   0  0  0  0  0  0  0  0  0  0  0  0
   16.1526   -3.5959   -4.0398 C   0  0  1  0  0  0  0  0  0  0  0  0
   15.8824   -3.4278   -2.5152 C   0  0  0  0  0  0  0  0  0  0  0  0
   14.7728   -2.4120   -2.2200 C   0  0  0  0  0  0  0  0  0  0  0  0
   15.4042   -4.7765   -1.9635 C   0  0  0  0  0  0  0  0  0  0  0  0
   17.1328   -2.9765   -1.7472 C   0  0  0  0  0  0  0  0  0  0  0  0
   16.6765   -2.3505   -4.7854 C   0  0  0  0  0  0  0  0  0  0  0  0
   17.8753   -2.0980   -4.8172 O   0  0  0  0  0  0  0  0  0  0  0  0
   15.7489   -1.5511   -5.4599 N   0  0  0  0  0  0  0  0  0  0  0  0
   16.1791   -0.6163   -6.4894 C   0  0  2  0  0  0  0  0  0  0  0  0
   16.5823    0.7495   -5.9238 C   0  0  0  0  0  0  0  0  0  0  0  0
   16.0335    1.2534   -4.9531 O   0  0  0  0  0  0  0  0  0  0  0  0
   17.5672    1.3814   -6.6633 N   0  0  0  0  0  0  0  0  0  0  0  0
   18.0192    2.7284   -6.3487 C   0  0  0  0  0  0  0  0  0  0  0  0
   19.4766    3.0194   -6.6346 C   0  0  0  0  0  0  0  0  0  0  0  0
   19.9846    4.2821   -6.3375 C   0  0  0  0  0  0  0  0  0  0  0  0
   21.3219    4.5925   -6.5359 C   0  0  0  0  0  0  0  0  0  0  0  0
   22.2003    3.6474   -7.0522 C   0  0  0  0  0  0  0  0  0  0  0  0
   23.6236    3.9219   -7.2151 C   0  0  0  0  0  0  0  0  0  0  0  0
   24.4401    3.8855   -8.3396 C   0  0  0  0  0  0  0  0  0  0  0  0
   24.0335    3.6161   -9.7363 C   0  0  0  0  0  0  0  0  0  0  0  0
   25.7782    4.1238   -8.1002 N   0  0  0  0  0  0  0  0  0  0  0  0
   25.9661    4.3588   -6.8218 C   0  0  0  0  0  0  0  0  0  0  0  0
   24.5735    4.3186   -5.8352 S   0  0  0  0  0  0  0  0  0  0  0  0
   21.6890    2.4008   -7.3798 C   0  0  0  0  0  0  0  0  0  0  0  0
   20.3601    2.0866   -7.1679 C   0  0  0  0  0  0  0  0  0  0  0  0
   14.9622   -0.4966   -7.3949 C   0  0  0  0  0  0  0  0  0  0  0  0
   13.7848   -0.6391   -6.4408 C   0  0  1  0  0  0  0  0  0  0  0  0
   12.6524   -1.2311   -7.0730 O   0  0  0  0  0  0  0  0  0  0  0  0
   14.3004   -1.5614   -5.3497 C   0  0  0  0  0  0  0  0  0  0  0  0
   19.0247   -6.1110   -5.2348 H   0  0  0  0  0  0  0  0  0  0  0  0
   18.0003   -7.3329   -6.0134 H   0  0  0  0  0  0  0  0  0  0  0  0
   18.1894   -7.3426   -4.2416 H   0  0  0  0  0  0  0  0  0  0  0  0
   18.1149   -4.4435   -4.0499 H   0  0  0  0  0  0  0  0  0  0  0  0
   15.2256   -3.9225   -4.5099 H   0  0  0  0  0  0  0  0  0  0  0  0
   15.0648   -1.3986   -2.5088 H   0  0  0  0  0  0  0  0  0  0  0  0
   14.5420   -2.3735   -1.1503 H   0  0  0  0  0  0  0  0  0  0  0  0
   13.8428   -2.6761   -2.7326 H   0  0  0  0  0  0  0  0  0  0  0  0
   15.1355   -4.6945   -0.9080 H   0  0  0  0  0  0  0  0  0  0  0  0
   16.1718   -5.5475   -2.0530 H   0  0  0  0  0  0  0  0  0  0  0  0
   14.5193   -5.1382   -2.4969 H   0  0  0  0  0  0  0  0  0  0  0  0
   16.9384   -2.9107   -0.6717 H   0  0  0  0  0  0  0  0  0  0  0  0
   17.4781   -1.9911   -2.0750 H   0  0  0  0  0  0  0  0  0  0  0  0
   17.9592   -3.6725   -1.8769 H   0  0  0  0  0  0  0  0  0  0  0  0
   17.0292   -1.0387   -7.0338 H   0  0  0  0  0  0  0  0  0  0  0  0
   17.9502    0.9067   -7.4744 H   0  0  0  0  0  0  0  0  0  0  0  0
   17.3960    3.4055   -6.9431 H   0  0  0  0  0  0  0  0  0  0  0  0
   17.8163    2.9280   -5.2911 H   0  0  0  0  0  0  0  0  0  0  0  0
   19.3307    5.0439   -5.9227 H   0  0  0  0  0  0  0  0  0  0  0  0
   21.6752    5.5853   -6.2734 H   0  0  0  0  0  0  0  0  0  0  0  0
   23.9007    2.5443   -9.8965 H   0  0  0  0  0  0  0  0  0  0  0  0
   24.7941    3.9657  -10.4402 H   0  0  0  0  0  0  0  0  0  0  0  0
   23.0988    4.1282   -9.9796 H   0  0  0  0  0  0  0  0  0  0  0  0
   26.9439    4.5677   -6.4115 H   0  0  0  0  0  0  0  0  0  0  0  0
   22.3367    1.6339   -7.7852 H   0  0  0  0  0  0  0  0  0  0  0  0
   20.0379    1.0822   -7.4098 H   0  0  0  0  0  0  0  0  0  0  0  0
   14.9224    0.4421   -7.9575 H   0  0  0  0  0  0  0  0  0  0  0  0
   14.9552   -1.3125   -8.1264 H   0  0  0  0  0  0  0  0  0  0  0  0
   13.4882    0.3300   -6.0235 H   0  0  0  0  0  0  0  0  0  0  0  0
   12.3441   -0.6290   -7.7737 H   0  0  0  0  0  0  0  0  0  0  0  0
   13.9059   -2.5763   -5.4160 H   0  0  0  0  0  0  0  0  0  0  0  0
   14.0142   -1.1546   -4.3799 H   0  0  0  0  0  0  0  0  0  0  0  0
  1 34  1  0  0  0  0
  1 35  1  0  0  0  0
  1 36  1  0  0  0  0
  1  2  1  0  0  0  0
  2  3  2  0  0  0  0
  2  4  1  0  0  0  0
  4 37  1  0  0  0  0
  5  4  1  0  0  0  0
  5 38  1  0  0  0  0
  5  6  1  0  0  0  0
  5 10  1  0  0  0  0
  6  7  1  0  0  0  0
  6  8  1  0  0  0  0
  6  9  1  0  0  0  0
  7 39  1  0  0  0  0
  7 40  1  0  0  0  0
  7 41  1  0  0  0  0
  8 42  1  0  0  0  0
  8 43  1  0  0  0  0
  8 44  1  0  0  0  0
  9 45  1  0  0  0  0
  9 46  1  0  0  0  0
  9 47  1  0  0  0  0
 10 11  2  0  0  0  0
 10 12  1  0  0  0  0
 12 33  1  0  0  0  0
 13 12  1  0  0  0  0
 13 30  1  0  0  0  0
 13 48  1  0  0  0  0
 13 14  1  0  0  0  0
 14 15  2  0  0  0  0
 14 16  1  0  0  0  0
 16 49  1  0  0  0  0
 16 17  1  0  0  0  0
 17 50  1  0  0  0  0
 17 51  1  0  0  0  0
 17 18  1  0  0  0  0
 18 19  1  0  0  0  0
 18 29  2  0  0  0  0
 19 52  1  0  0  0  0
 19 20  2  0  0  0  0
 20 53  1  0  0  0  0
 20 21  1  0  0  0  0
 21 28  2  0  0  0  0
 21 22  1  0  0  0  0
 22 23  2  0  0  0  0
 22 27  1  0  0  0  0
 23 24  1  0  0  0  0
 23 25  1  0  0  0  0
 24 54  1  0  0  0  0
 24 55  1  0  0  0  0
 24 56  1  0  0  0  0
 25 26  2  0  0  0  0
 26 57  1  0  0  0  0
 26 27  1  0  0  0  0
 28 58  1  0  0  0  0
 28 29  1  0  0  0  0
 29 59  1  0  0  0  0
 31 30  1  0  0  0  0
 30 60  1  0  0  0  0
 30 61  1  0  0  0  0
 31 33  1  0  0  0  0
 31 62  1  0  0  0  0
 31 32  1  0  0  0  0
 32 63  1  0  0  0  0
 33 64  1  0  0  0  0
 33 65  1  0  0  0  0
M  ZZC   1 c1
M  ZZC   2 c2
M  ZZC   3 o1
M  ZZC   4 n1
M  ZZC   5 c3
M  ZZC   6 c4
M  ZZC   7 c5
M  ZZC   8 c6
M  ZZC   9 c7
M  ZZC  10 c8
M  ZZC  11 o2
M  ZZC  12 n2
M  ZZC  13 c9
M  ZZC  14 c10
M  ZZC  15 o3
M  ZZC  16 n3
M  ZZC  17 c11
M  ZZC  18 c12
M  ZZC  19 c13
M  ZZC  20 c14
M  ZZC  21 c15
M  ZZC  22 c16
M  ZZC  23 c17
M  ZZC  24 c18
M  ZZC  25 n4
M  ZZC  26 c19
M  ZZC  27 s1
M  ZZC  28 c20
M  ZZC  29 c21
M  ZZC  30 c22
M  ZZC  31 c23
M  ZZC  32 o4
M  ZZC  33 c24
M  ZZC  34 h11
M  ZZC  35 h12
M  ZZC  36 h13
M  ZZC  37 h01
M  ZZC  38 h31
M  ZZC  39 h51
M  ZZC  40 h52
M  ZZC  41 h53
M  ZZC  42 h61
M  ZZC  43 h62
M  ZZC  44 h63
M  ZZC  45 h71
M  ZZC  46 h72
M  ZZC  47 h73
M  ZZC  48 h91
M  ZZC  49 h02
M  ZZC  50 h111
M  ZZC  51 h112
M  ZZC  52 h131
M  ZZC  53 h141
M  ZZC  54 h181
M  ZZC  55 h182
M  ZZC  56 h183
M  ZZC  57 h191
M  ZZC  58 h201
M  ZZC  59 h211
M  ZZC  60 h221
M  ZZC  61 h222
M  ZZC  62 h231
M  ZZC  63 h41
M  ZZC  64 h241
M  ZZC  65 h242
M  ZZM   1 1
M  ZZI   1 111
M  ZZM   2 3
M  ZZI   2 121
M  ZZM   3 7
M  ZZI   3 81
M  ZZM   4 10
M  ZZI   4 211
M  ZZM   5 1
M  ZZI   5 113
M  ZZM   6 1
M  ZZI   6 110
M  ZZM   7 1
M  ZZI   7 111
M  ZZM   8 1
M  ZZI   8 111
M  ZZM   9 1
M  ZZI   9 111
M  ZZM  10 3
M  ZZI  10 121
M  ZZM  11 7
M  ZZI  11 81
M  ZZM  12 10
M  ZZI  12 192
M  ZZM  13 1
M  ZZI  13 113
M  ZZM  14 3
M  ZZI  14 121
M  ZZM  15 7
M  ZZI  15 81
M  ZZM  16 10
M  ZZI  16 211
M  ZZM  17 1
M  ZZI  17 112
M  ZZM  18 37
M  ZZI  18 124
M  ZZM  19 37
M  ZZI  19 125
M  ZZM  20 37
M  ZZI  20 125
M  ZZM  21 37
M  ZZI  21 124
M  ZZM  22 63
M  ZZI  22 104
M  ZZM  23 64
M  ZZI  23 105
M  ZZM  24 1
M  ZZI  24 111
M  ZZM  25 66
M  ZZI  25 222
M  ZZM  26 63
M  ZZI  26 104
M  ZZM  27 44
M  ZZI  27 248
M  ZZM  28 37
M  ZZI  28 125
M  ZZM  29 37
M  ZZI  29 125
M  ZZM  30 1
M  ZZI  30 112
M  ZZM  31 1
M  ZZI  31 113
M  ZZM  32 6
M  ZZI  32 60
M  ZZM  33 1
M  ZZI  33 112
M  ZZM  34 5
M  ZZI  34 1
M  ZZM  35 5
M  ZZI  35 1
M  ZZM  36 5
M  ZZI  36 1
M  ZZM  37 28
M  ZZI  37 11
M  ZZM  38 5
M  ZZI  38 1
M  ZZM  39 5
M  ZZI  39 1
M  ZZM  40 5
M  ZZI  40 1
M  ZZM  41 5
M  ZZI  41 1
M  ZZM  42 5
M  ZZI  42 1
M  ZZM  43 5
M  ZZI  43 1
M  ZZM  44 5
M  ZZI  44 1
M  ZZM  45 5
M  ZZI  45 1
M  ZZM  46 5
M  ZZI  46 1
M  ZZM  47 5
M  ZZI  47 1
M  ZZM  48 5
M  ZZI  48 1
M  ZZM  49 28
M  ZZI  49 11
M  ZZM  50 5
M  ZZI  50 1
M  ZZM  51 5
M  ZZI  51 1
M  ZZM  52 5
M  ZZI  52 1
M  ZZM  53 5
M  ZZI  53 1
M  ZZM  54 5
M  ZZI  54 1
M  ZZM  55 5
M  ZZI  55 1
M  ZZM  56 5
M  ZZI  56 1
M  ZZM  57 5
M  ZZI  57 1
M  ZZM  58 5
M  ZZI  58 1
M  ZZM  59 5
M  ZZI  59 1
M  ZZM  60 5
M  ZZI  60 1
M  ZZM  61 5
M  ZZI  61 1
M  ZZM  62 5
M  ZZI  62 1
M  ZZM  63 21
M  ZZI  63 20
M  ZZM  64 5
M  ZZI  64 1
M  ZZM  65 5
M  ZZI  65 1
M  END
> <IX>
1

> <NAME>
VHL_4IM0_2.pdb

> <Score>
-11.339765

> <Natom>
65

> <Nflex>
8

> <Hbond>
-4.964647

> <Hphob>
-6.394412

> <VwInt>
-28.084819

> <Dsolv>
16.763608

> <SolEl>
16.804371

> <Eintl>
8.543792

> <RecConf>
ND

> <projPath>
VHL_maps/

> <NAME_>
VHL_4IM0_2.pdb

$$$$
