VHL_4IM0_12.pdb
  MOLSOFT 04032206383D

 65 67  0  0  1  0  0  0  0  0999 V2000
   18.1222   -6.8281   -5.1254 C   0  0  0  0  0  0  0  0  0  0  0  0
   16.9126   -5.9395   -5.0310 C   0  0  0  0  0  0  0  0  0  0  0  0
   15.8553   -6.2679   -5.5410 O   0  0  0  0  0  0  0  0  0  0  0  0
   17.1256   -4.7882   -4.2995 N   0  0  0  0  0  0  0  0  0  0  0  0
   16.1182   -3.7391   -4.0709 C   0  0  1  0  0  0  0  0  0  0  0  0
   15.8032   -3.5530   -2.5580 C   0  0  0  0  0  0  0  0  0  0  0  0
   14.6912   -2.5311   -2.2970 C   0  0  0  0  0  0  0  0  0  0  0  0
   15.2991   -4.8946   -2.0203 C   0  0  0  0  0  0  0  0  0  0  0  0
   17.0304   -3.1031   -1.7527 C   0  0  0  0  0  0  0  0  0  0  0  0
   16.6799   -2.5082   -4.8033 C   0  0  0  0  0  0  0  0  0  0  0  0
   17.8824   -2.2708   -4.7994 O   0  0  0  0  0  0  0  0  0  0  0  0
   15.7845   -1.6934   -5.4993 N   0  0  0  0  0  0  0  0  0  0  0  0
   16.2744   -0.7356   -6.4736 C   0  0  2  0  0  0  0  0  0  0  0  0
   16.7619    0.5405   -5.7875 C   0  0  0  0  0  0  0  0  0  0  0  0
   16.2615    0.9738   -4.7580 O   0  0  0  0  0  0  0  0  0  0  0  0
   17.7866    1.1680   -6.4714 N   0  0  0  0  0  0  0  0  0  0  0  0
   18.4137    2.3817   -5.9907 C   0  0  0  0  0  0  0  0  0  0  0  0
   17.7586    3.6179   -6.5494 C   0  0  0  0  0  0  0  0  0  0  0  0
   18.3961    4.3988   -7.5078 C   0  0  0  0  0  0  0  0  0  0  0  0
   17.7835    5.5320   -8.0179 C   0  0  0  0  0  0  0  0  0  0  0  0
   16.5167    5.9159   -7.5837 C   0  0  0  0  0  0  0  0  0  0  0  0
   15.8566    7.1060   -8.1049 C   0  0  0  0  0  0  0  0  0  0  0  0
   14.5666    7.2856   -8.5886 C   0  0  0  0  0  0  0  0  0  0  0  0
   13.5123    6.2580   -8.7446 C   0  0  0  0  0  0  0  0  0  0  0  0
   14.2565    8.5768   -8.9538 N   0  0  0  0  0  0  0  0  0  0  0  0
   15.3046    9.3513   -8.7866 C   0  0  0  0  0  0  0  0  0  0  0  0
   16.6996    8.6064   -8.1525 S   0  0  0  0  0  0  0  0  0  0  0  0
   15.8826    5.1327   -6.6273 C   0  0  0  0  0  0  0  0  0  0  0  0
   16.4958    4.0061   -6.1157 C   0  0  0  0  0  0  0  0  0  0  0  0
   15.0841   -0.4878   -7.3868 C   0  0  0  0  0  0  0  0  0  0  0  0
   13.8760   -0.6645   -6.4789 C   0  0  1  0  0  0  0  0  0  0  0  0
   12.7567   -1.2019   -7.1804 O   0  0  0  0  0  0  0  0  0  0  0  0
   14.3355   -1.6520   -5.4194 C   0  0  0  0  0  0  0  0  0  0  0  0
   19.0193   -6.2048   -5.1418 H   0  0  0  0  0  0  0  0  0  0  0  0
   18.0856   -7.4483   -6.0262 H   0  0  0  0  0  0  0  0  0  0  0  0
   18.1579   -7.4877   -4.2533 H   0  0  0  0  0  0  0  0  0  0  0  0
   18.0744   -4.5970   -3.9963 H   0  0  0  0  0  0  0  0  0  0  0  0
   15.2033   -4.0588   -4.5689 H   0  0  0  0  0  0  0  0  0  0  0  0
   15.0026   -1.5180   -2.5656 H   0  0  0  0  0  0  0  0  0  0  0  0
   14.4218   -2.4978   -1.2361 H   0  0  0  0  0  0  0  0  0  0  0  0
   13.7784   -2.7848   -2.8444 H   0  0  0  0  0  0  0  0  0  0  0  0
   15.0077   -4.8083   -0.9720 H   0  0  0  0  0  0  0  0  0  0  0  0
   16.0618   -5.6714   -2.0967 H   0  0  0  0  0  0  0  0  0  0  0  0
   14.4233   -5.2473   -2.5744 H   0  0  0  0  0  0  0  0  0  0  0  0
   16.8034   -3.0336   -0.6839 H   0  0  0  0  0  0  0  0  0  0  0  0
   17.3879   -2.1193   -2.0723 H   0  0  0  0  0  0  0  0  0  0  0  0
   17.8586   -3.8000   -1.8551 H   0  0  0  0  0  0  0  0  0  0  0  0
   17.1057   -1.1757   -7.0312 H   0  0  0  0  0  0  0  0  0  0  0  0
   18.1662    0.7382   -7.3089 H   0  0  0  0  0  0  0  0  0  0  0  0
   18.3867    2.4039   -4.8956 H   0  0  0  0  0  0  0  0  0  0  0  0
   19.4672    2.3353   -6.2858 H   0  0  0  0  0  0  0  0  0  0  0  0
   19.3845    4.1282   -7.8677 H   0  0  0  0  0  0  0  0  0  0  0  0
   18.3085    6.1130   -8.7711 H   0  0  0  0  0  0  0  0  0  0  0  0
   12.7699    6.5536   -9.4918 H   0  0  0  0  0  0  0  0  0  0  0  0
   12.9823    6.0994   -7.8024 H   0  0  0  0  0  0  0  0  0  0  0  0
   13.9515    5.3043   -9.0471 H   0  0  0  0  0  0  0  0  0  0  0  0
   15.2946   10.4035   -9.0306 H   0  0  0  0  0  0  0  0  0  0  0  0
   14.9005    5.4050   -6.2518 H   0  0  0  0  0  0  0  0  0  0  0  0
   15.9730    3.4291   -5.3592 H   0  0  0  0  0  0  0  0  0  0  0  0
   15.0973    0.4979   -7.8639 H   0  0  0  0  0  0  0  0  0  0  0  0
   15.0653   -1.2343   -8.1886 H   0  0  0  0  0  0  0  0  0  0  0  0
   13.5796    0.2865   -6.0215 H   0  0  0  0  0  0  0  0  0  0  0  0
   12.5095   -0.5781   -7.8863 H   0  0  0  0  0  0  0  0  0  0  0  0
   13.9060   -2.6486   -5.5264 H   0  0  0  0  0  0  0  0  0  0  0  0
   14.0449   -1.2692   -4.4423 H   0  0  0  0  0  0  0  0  0  0  0  0
  1 34  1  0  0  0  0
  1 35  1  0  0  0  0
  1 36  1  0  0  0  0
  1  2  1  0  0  0  0
  2  3  2  0  0  0  0
  2  4  1  0  0  0  0
  4 37  1  0  0  0  0
  5  4  1  0  0  0  0
  5 38  1  0  0  0  0
  5  6  1  0  0  0  0
  5 10  1  0  0  0  0
  6  7  1  0  0  0  0
  6  8  1  0  0  0  0
  6  9  1  0  0  0  0
  7 39  1  0  0  0  0
  7 40  1  0  0  0  0
  7 41  1  0  0  0  0
  8 42  1  0  0  0  0
  8 43  1  0  0  0  0
  8 44  1  0  0  0  0
  9 45  1  0  0  0  0
  9 46  1  0  0  0  0
  9 47  1  0  0  0  0
 10 11  2  0  0  0  0
 10 12  1  0  0  0  0
 12 33  1  0  0  0  0
 13 12  1  0  0  0  0
 13 30  1  0  0  0  0
 13 48  1  0  0  0  0
 13 14  1  0  0  0  0
 14 15  2  0  0  0  0
 14 16  1  0  0  0  0
 16 49  1  0  0  0  0
 16 17  1  0  0  0  0
 17 50  1  0  0  0  0
 17 51  1  0  0  0  0
 17 18  1  0  0  0  0
 18 19  1  0  0  0  0
 18 29  2  0  0  0  0
 19 52  1  0  0  0  0
 19 20  2  0  0  0  0
 20 53  1  0  0  0  0
 20 21  1  0  0  0  0
 21 28  2  0  0  0  0
 21 22  1  0  0  0  0
 22 23  2  0  0  0  0
 22 27  1  0  0  0  0
 23 24  1  0  0  0  0
 23 25  1  0  0  0  0
 24 54  1  0  0  0  0
 24 55  1  0  0  0  0
 24 56  1  0  0  0  0
 25 26  2  0  0  0  0
 26 57  1  0  0  0  0
 26 27  1  0  0  0  0
 28 58  1  0  0  0  0
 28 29  1  0  0  0  0
 29 59  1  0  0  0  0
 31 30  1  0  0  0  0
 30 60  1  0  0  0  0
 30 61  1  0  0  0  0
 31 33  1  0  0  0  0
 31 62  1  0  0  0  0
 31 32  1  0  0  0  0
 32 63  1  0  0  0  0
 33 64  1  0  0  0  0
 33 65  1  0  0  0  0
M  ZZC   1 c1
M  ZZC   2 c2
M  ZZC   3 o1
M  ZZC   4 n1
M  ZZC   5 c3
M  ZZC   6 c4
M  ZZC   7 c5
M  ZZC   8 c6
M  ZZC   9 c7
M  ZZC  10 c8
M  ZZC  11 o2
M  ZZC  12 n2
M  ZZC  13 c9
M  ZZC  14 c10
M  ZZC  15 o3
M  ZZC  16 n3
M  ZZC  17 c11
M  ZZC  18 c12
M  ZZC  19 c13
M  ZZC  20 c14
M  ZZC  21 c15
M  ZZC  22 c16
M  ZZC  23 c17
M  ZZC  24 c18
M  ZZC  25 n4
M  ZZC  26 c19
M  ZZC  27 s1
M  ZZC  28 c20
M  ZZC  29 c21
M  ZZC  30 c22
M  ZZC  31 c23
M  ZZC  32 o4
M  ZZC  33 c24
M  ZZC  34 h11
M  ZZC  35 h12
M  ZZC  36 h13
M  ZZC  37 h01
M  ZZC  38 h31
M  ZZC  39 h51
M  ZZC  40 h52
M  ZZC  41 h53
M  ZZC  42 h61
M  ZZC  43 h62
M  ZZC  44 h63
M  ZZC  45 h71
M  ZZC  46 h72
M  ZZC  47 h73
M  ZZC  48 h91
M  ZZC  49 h02
M  ZZC  50 h111
M  ZZC  51 h112
M  ZZC  52 h131
M  ZZC  53 h141
M  ZZC  54 h181
M  ZZC  55 h182
M  ZZC  56 h183
M  ZZC  57 h191
M  ZZC  58 h201
M  ZZC  59 h211
M  ZZC  60 h221
M  ZZC  61 h222
M  ZZC  62 h231
M  ZZC  63 h41
M  ZZC  64 h241
M  ZZC  65 h242
M  ZZM   1 1
M  ZZI   1 111
M  ZZM   2 3
M  ZZI   2 121
M  ZZM   3 7
M  ZZI   3 81
M  ZZM   4 10
M  ZZI   4 211
M  ZZM   5 1
M  ZZI   5 113
M  ZZM   6 1
M  ZZI   6 110
M  ZZM   7 1
M  ZZI   7 111
M  ZZM   8 1
M  ZZI   8 111
M  ZZM   9 1
M  ZZI   9 111
M  ZZM  10 3
M  ZZI  10 121
M  ZZM  11 7
M  ZZI  11 81
M  ZZM  12 10
M  ZZI  12 192
M  ZZM  13 1
M  ZZI  13 113
M  ZZM  14 3
M  ZZI  14 121
M  ZZM  15 7
M  ZZI  15 81
M  ZZM  16 10
M  ZZI  16 211
M  ZZM  17 1
M  ZZI  17 112
M  ZZM  18 37
M  ZZI  18 124
M  ZZM  19 37
M  ZZI  19 125
M  ZZM  20 37
M  ZZI  20 125
M  ZZM  21 37
M  ZZI  21 124
M  ZZM  22 63
M  ZZI  22 104
M  ZZM  23 64
M  ZZI  23 105
M  ZZM  24 1
M  ZZI  24 111
M  ZZM  25 66
M  ZZI  25 222
M  ZZM  26 63
M  ZZI  26 104
M  ZZM  27 44
M  ZZI  27 248
M  ZZM  28 37
M  ZZI  28 125
M  ZZM  29 37
M  ZZI  29 125
M  ZZM  30 1
M  ZZI  30 112
M  ZZM  31 1
M  ZZI  31 113
M  ZZM  32 6
M  ZZI  32 60
M  ZZM  33 1
M  ZZI  33 112
M  ZZM  34 5
M  ZZI  34 1
M  ZZM  35 5
M  ZZI  35 1
M  ZZM  36 5
M  ZZI  36 1
M  ZZM  37 28
M  ZZI  37 11
M  ZZM  38 5
M  ZZI  38 1
M  ZZM  39 5
M  ZZI  39 1
M  ZZM  40 5
M  ZZI  40 1
M  ZZM  41 5
M  ZZI  41 1
M  ZZM  42 5
M  ZZI  42 1
M  ZZM  43 5
M  ZZI  43 1
M  ZZM  44 5
M  ZZI  44 1
M  ZZM  45 5
M  ZZI  45 1
M  ZZM  46 5
M  ZZI  46 1
M  ZZM  47 5
M  ZZI  47 1
M  ZZM  48 5
M  ZZI  48 1
M  ZZM  49 28
M  ZZI  49 11
M  ZZM  50 5
M  ZZI  50 1
M  ZZM  51 5
M  ZZI  51 1
M  ZZM  52 5
M  ZZI  52 1
M  ZZM  53 5
M  ZZI  53 1
M  ZZM  54 5
M  ZZI  54 1
M  ZZM  55 5
M  ZZI  55 1
M  ZZM  56 5
M  ZZI  56 1
M  ZZM  57 5
M  ZZI  57 1
M  ZZM  58 5
M  ZZI  58 1
M  ZZM  59 5
M  ZZI  59 1
M  ZZM  60 5
M  ZZI  60 1
M  ZZM  61 5
M  ZZI  61 1
M  ZZM  62 5
M  ZZI  62 1
M  ZZM  63 21
M  ZZI  63 20
M  ZZM  64 5
M  ZZI  64 1
M  ZZM  65 5
M  ZZI  65 1
M  END
> <IX>
1

> <NAME>
VHL_4IM0_12.pdb

> <Score>
-5.035543

> <Natom>
65

> <Nflex>
8

> <Hbond>
-5.031072

> <Hphob>
-6.408147

> <VwInt>
-27.625507

> <Dsolv>
22.540728

> <SolEl>
21.486383

> <Eintl>
6.209126

> <RecConf>
ND

> <projPath>
VHL_maps/

> <NAME_>
VHL_4IM0_12.pdb

$$$$
