VHL_4MKC_3.pdb
  MOLSOFT 04032206383D

 65 67  0  0  1  0  0  0  0  0999 V2000
   18.3894   -6.9358   -5.3459 C   0  0  0  0  0  0  0  0  0  0  0  0
   17.2067   -6.0076   -5.2944 C   0  0  0  0  0  0  0  0  0  0  0  0
   16.1058   -6.3770   -5.6702 O   0  0  0  0  0  0  0  0  0  0  0  0
   17.4972   -4.7609   -4.7728 N   0  0  0  0  0  0  0  0  0  0  0  0
   16.5192   -3.6742   -4.6576 C   0  0  1  0  0  0  0  0  0  0  0  0
   15.8938   -3.5511   -3.2302 C   0  0  0  0  0  0  0  0  0  0  0  0
   16.8928   -2.9904   -2.2054 C   0  0  0  0  0  0  0  0  0  0  0  0
   15.4171   -4.9203   -2.7201 C   0  0  0  0  0  0  0  0  0  0  0  0
   14.6662   -2.6268   -3.2633 C   0  0  0  0  0  0  0  0  0  0  0  0
   17.2105   -2.3791   -5.1269 C   0  0  0  0  0  0  0  0  0  0  0  0
   18.3604   -2.1220   -4.8013 O   0  0  0  0  0  0  0  0  0  0  0  0
   16.4698   -1.4659   -5.8784 N   0  0  0  0  0  0  0  0  0  0  0  0
   17.0288   -0.1654   -6.2280 C   0  0  2  0  0  0  0  0  0  0  0  0
   17.2030    0.8040   -5.0667 C   0  0  0  0  0  0  0  0  0  0  0  0
   16.5477    0.7529   -4.0347 O   0  0  0  0  0  0  0  0  0  0  0  0
   18.1056    1.8051   -5.3721 N   0  0  0  0  0  0  0  0  0  0  0  0
   18.2166    3.0094   -4.5832 C   0  0  0  0  0  0  0  0  0  0  0  0
   17.2765    4.0598   -5.1164 C   0  0  0  0  0  0  0  0  0  0  0  0
   16.0716    4.3281   -4.4745 C   0  0  0  0  0  0  0  0  0  0  0  0
   15.1978    5.2775   -4.9763 C   0  0  0  0  0  0  0  0  0  0  0  0
   15.5035    5.9786   -6.1385 C   0  0  0  0  0  0  0  0  0  0  0  0
   14.6179    7.0174   -6.6425 C   0  0  0  0  0  0  0  0  0  0  0  0
   13.9342    7.1321   -7.8465 C   0  0  0  0  0  0  0  0  0  0  0  0
   13.8952    6.1424   -8.9466 C   0  0  0  0  0  0  0  0  0  0  0  0
   13.2271    8.3076   -8.0042 N   0  0  0  0  0  0  0  0  0  0  0  0
   13.3743    9.0543   -6.9330 C   0  0  0  0  0  0  0  0  0  0  0  0
   14.3249    8.4081   -5.6765 S   0  0  0  0  0  0  0  0  0  0  0  0
   16.6915    5.6874   -6.8003 C   0  0  0  0  0  0  0  0  0  0  0  0
   17.5678    4.7422   -6.2944 C   0  0  0  0  0  0  0  0  0  0  0  0
   16.0393    0.4483   -7.2124 C   0  0  0  0  0  0  0  0  0  0  0  0
   15.3759   -0.7550   -7.8401 C   0  0  1  0  0  0  0  0  0  0  0  0
   16.1750   -1.2336   -8.9313 O   0  0  0  0  0  0  0  0  0  0  0  0
   15.3238   -1.7740   -6.7098 C   0  0  0  0  0  0  0  0  0  0  0  0
   19.3332   -6.3929   -5.2423 H   0  0  0  0  0  0  0  0  0  0  0  0
   18.3963   -7.4537   -6.3088 H   0  0  0  0  0  0  0  0  0  0  0  0
   18.3001   -7.6692   -4.5413 H   0  0  0  0  0  0  0  0  0  0  0  0
   18.4469   -4.5736   -4.4741 H   0  0  0  0  0  0  0  0  0  0  0  0
   15.7328   -3.9146   -5.3591 H   0  0  0  0  0  0  0  0  0  0  0  0
   16.4728   -2.9981   -1.1942 H   0  0  0  0  0  0  0  0  0  0  0  0
   17.1698   -1.9548   -2.4242 H   0  0  0  0  0  0  0  0  0  0  0  0
   17.8121   -3.5782   -2.1771 H   0  0  0  0  0  0  0  0  0  0  0  0
   14.9293   -4.8384   -1.7437 H   0  0  0  0  0  0  0  0  0  0  0  0
   16.2435   -5.6261   -2.6009 H   0  0  0  0  0  0  0  0  0  0  0  0
   14.6916   -5.3667   -3.4030 H   0  0  0  0  0  0  0  0  0  0  0  0
   14.9409   -1.6061   -3.5490 H   0  0  0  0  0  0  0  0  0  0  0  0
   14.1840   -2.5684   -2.2823 H   0  0  0  0  0  0  0  0  0  0  0  0
   13.9161   -2.9646   -3.9831 H   0  0  0  0  0  0  0  0  0  0  0  0
   18.0014   -0.3327   -6.6924 H   0  0  0  0  0  0  0  0  0  0  0  0
   18.6427    1.7533   -6.2313 H   0  0  0  0  0  0  0  0  0  0  0  0
   18.0039    2.7848   -3.5324 H   0  0  0  0  0  0  0  0  0  0  0  0
   19.2533    3.3572   -4.6432 H   0  0  0  0  0  0  0  0  0  0  0  0
   15.8019    3.7902   -3.5698 H   0  0  0  0  0  0  0  0  0  0  0  0
   14.2676    5.4665   -4.4476 H   0  0  0  0  0  0  0  0  0  0  0  0
   14.8685    6.0726   -9.4403 H   0  0  0  0  0  0  0  0  0  0  0  0
   13.1564    6.4235   -9.7025 H   0  0  0  0  0  0  0  0  0  0  0  0
   13.6259    5.1503   -8.5720 H   0  0  0  0  0  0  0  0  0  0  0  0
   12.9251   10.0295   -6.8354 H   0  0  0  0  0  0  0  0  0  0  0  0
   16.9567    6.2173   -7.7110 H   0  0  0  0  0  0  0  0  0  0  0  0
   18.4917    4.5417   -6.8293 H   0  0  0  0  0  0  0  0  0  0  0  0
   15.2901    1.0548   -6.6897 H   0  0  0  0  0  0  0  0  0  0  0  0
   16.5419    1.0885   -7.9453 H   0  0  0  0  0  0  0  0  0  0  0  0
   14.3821   -0.5188   -8.2199 H   0  0  0  0  0  0  0  0  0  0  0  0
   17.1087   -1.1787   -8.6559 H   0  0  0  0  0  0  0  0  0  0  0  0
   15.3851   -2.7978   -7.0862 H   0  0  0  0  0  0  0  0  0  0  0  0
   14.4258   -1.6459   -6.0971 H   0  0  0  0  0  0  0  0  0  0  0  0
  1 34  1  0  0  0  0
  1 35  1  0  0  0  0
  1 36  1  0  0  0  0
  1  2  1  0  0  0  0
  2  3  2  0  0  0  0
  2  4  1  0  0  0  0
  4 37  1  0  0  0  0
  5  4  1  0  0  0  0
  5 38  1  0  0  0  0
  5  6  1  0  0  0  0
  5 10  1  0  0  0  0
  6  7  1  0  0  0  0
  6  8  1  0  0  0  0
  6  9  1  0  0  0  0
  7 39  1  0  0  0  0
  7 40  1  0  0  0  0
  7 41  1  0  0  0  0
  8 42  1  0  0  0  0
  8 43  1  0  0  0  0
  8 44  1  0  0  0  0
  9 45  1  0  0  0  0
  9 46  1  0  0  0  0
  9 47  1  0  0  0  0
 10 11  2  0  0  0  0
 10 12  1  0  0  0  0
 12 33  1  0  0  0  0
 13 12  1  0  0  0  0
 13 30  1  0  0  0  0
 13 48  1  0  0  0  0
 13 14  1  0  0  0  0
 14 15  2  0  0  0  0
 14 16  1  0  0  0  0
 16 49  1  0  0  0  0
 16 17  1  0  0  0  0
 17 50  1  0  0  0  0
 17 51  1  0  0  0  0
 17 18  1  0  0  0  0
 18 19  1  0  0  0  0
 18 29  2  0  0  0  0
 19 52  1  0  0  0  0
 19 20  2  0  0  0  0
 20 53  1  0  0  0  0
 20 21  1  0  0  0  0
 21 28  2  0  0  0  0
 21 22  1  0  0  0  0
 22 23  2  0  0  0  0
 22 27  1  0  0  0  0
 23 24  1  0  0  0  0
 23 25  1  0  0  0  0
 24 54  1  0  0  0  0
 24 55  1  0  0  0  0
 24 56  1  0  0  0  0
 25 26  2  0  0  0  0
 26 57  1  0  0  0  0
 26 27  1  0  0  0  0
 28 58  1  0  0  0  0
 28 29  1  0  0  0  0
 29 59  1  0  0  0  0
 31 30  1  0  0  0  0
 30 60  1  0  0  0  0
 30 61  1  0  0  0  0
 31 33  1  0  0  0  0
 31 62  1  0  0  0  0
 31 32  1  0  0  0  0
 32 63  1  0  0  0  0
 33 64  1  0  0  0  0
 33 65  1  0  0  0  0
M  ZZC   1 c1
M  ZZC   2 c2
M  ZZC   3 o1
M  ZZC   4 n1
M  ZZC   5 c3
M  ZZC   6 c4
M  ZZC   7 c5
M  ZZC   8 c6
M  ZZC   9 c7
M  ZZC  10 c8
M  ZZC  11 o2
M  ZZC  12 n2
M  ZZC  13 c9
M  ZZC  14 c10
M  ZZC  15 o3
M  ZZC  16 n3
M  ZZC  17 c11
M  ZZC  18 c12
M  ZZC  19 c13
M  ZZC  20 c14
M  ZZC  21 c15
M  ZZC  22 c16
M  ZZC  23 c17
M  ZZC  24 c18
M  ZZC  25 n4
M  ZZC  26 c19
M  ZZC  27 s1
M  ZZC  28 c20
M  ZZC  29 c21
M  ZZC  30 c22
M  ZZC  31 c23
M  ZZC  32 o4
M  ZZC  33 c24
M  ZZC  34 h11
M  ZZC  35 h12
M  ZZC  36 h13
M  ZZC  37 h01
M  ZZC  38 h31
M  ZZC  39 h51
M  ZZC  40 h52
M  ZZC  41 h53
M  ZZC  42 h61
M  ZZC  43 h62
M  ZZC  44 h63
M  ZZC  45 h71
M  ZZC  46 h72
M  ZZC  47 h73
M  ZZC  48 h91
M  ZZC  49 h02
M  ZZC  50 h111
M  ZZC  51 h112
M  ZZC  52 h131
M  ZZC  53 h141
M  ZZC  54 h181
M  ZZC  55 h182
M  ZZC  56 h183
M  ZZC  57 h191
M  ZZC  58 h201
M  ZZC  59 h211
M  ZZC  60 h221
M  ZZC  61 h222
M  ZZC  62 h231
M  ZZC  63 h41
M  ZZC  64 h241
M  ZZC  65 h242
M  ZZM   1 1
M  ZZI   1 111
M  ZZM   2 3
M  ZZI   2 121
M  ZZM   3 7
M  ZZI   3 81
M  ZZM   4 10
M  ZZI   4 211
M  ZZM   5 1
M  ZZI   5 113
M  ZZM   6 1
M  ZZI   6 110
M  ZZM   7 1
M  ZZI   7 111
M  ZZM   8 1
M  ZZI   8 111
M  ZZM   9 1
M  ZZI   9 111
M  ZZM  10 3
M  ZZI  10 121
M  ZZM  11 7
M  ZZI  11 81
M  ZZM  12 10
M  ZZI  12 192
M  ZZM  13 1
M  ZZI  13 113
M  ZZM  14 3
M  ZZI  14 121
M  ZZM  15 7
M  ZZI  15 81
M  ZZM  16 10
M  ZZI  16 211
M  ZZM  17 1
M  ZZI  17 112
M  ZZM  18 37
M  ZZI  18 124
M  ZZM  19 37
M  ZZI  19 125
M  ZZM  20 37
M  ZZI  20 125
M  ZZM  21 37
M  ZZI  21 124
M  ZZM  22 63
M  ZZI  22 104
M  ZZM  23 64
M  ZZI  23 105
M  ZZM  24 1
M  ZZI  24 111
M  ZZM  25 66
M  ZZI  25 222
M  ZZM  26 63
M  ZZI  26 104
M  ZZM  27 44
M  ZZI  27 248
M  ZZM  28 37
M  ZZI  28 125
M  ZZM  29 37
M  ZZI  29 125
M  ZZM  30 1
M  ZZI  30 112
M  ZZM  31 1
M  ZZI  31 113
M  ZZM  32 6
M  ZZI  32 60
M  ZZM  33 1
M  ZZI  33 112
M  ZZM  34 5
M  ZZI  34 1
M  ZZM  35 5
M  ZZI  35 1
M  ZZM  36 5
M  ZZI  36 1
M  ZZM  37 28
M  ZZI  37 11
M  ZZM  38 5
M  ZZI  38 1
M  ZZM  39 5
M  ZZI  39 1
M  ZZM  40 5
M  ZZI  40 1
M  ZZM  41 5
M  ZZI  41 1
M  ZZM  42 5
M  ZZI  42 1
M  ZZM  43 5
M  ZZI  43 1
M  ZZM  44 5
M  ZZI  44 1
M  ZZM  45 5
M  ZZI  45 1
M  ZZM  46 5
M  ZZI  46 1
M  ZZM  47 5
M  ZZI  47 1
M  ZZM  48 5
M  ZZI  48 1
M  ZZM  49 28
M  ZZI  49 11
M  ZZM  50 5
M  ZZI  50 1
M  ZZM  51 5
M  ZZI  51 1
M  ZZM  52 5
M  ZZI  52 1
M  ZZM  53 5
M  ZZI  53 1
M  ZZM  54 5
M  ZZI  54 1
M  ZZM  55 5
M  ZZI  55 1
M  ZZM  56 5
M  ZZI  56 1
M  ZZM  57 5
M  ZZI  57 1
M  ZZM  58 5
M  ZZI  58 1
M  ZZM  59 5
M  ZZI  59 1
M  ZZM  60 5
M  ZZI  60 1
M  ZZM  61 5
M  ZZI  61 1
M  ZZM  62 5
M  ZZI  62 1
M  ZZM  63 21
M  ZZI  63 20
M  ZZM  64 5
M  ZZI  64 1
M  ZZM  65 5
M  ZZI  65 1
M  END
> <IX>
1

> <NAME>
VHL_4MKC_3.pdb

> <Score>
-24.382747

> <Natom>
65

> <Nflex>
8

> <Hbond>
-7.8553

> <Hphob>
-6.440687

> <VwInt>
-30.271304

> <Dsolv>
21.342017

> <SolEl>
10.215483

> <Eintl>
4.214989

> <RecConf>
ND

> <projPath>
VHL_maps/

> <NAME_>
VHL_4MKC_3.pdb

$$$$
