VHL_5T8E_56.pdb
  MOLSOFT 04032206463D

 84 88  0  0  1  0  0  0  0  0999 V2000
   14.0321    7.3535   -8.6507 C   0  0  0  0  0  0  0  0  0  0  0  0
   13.1576    6.2576   -8.0591 C   0  0  0  0  0  0  0  0  0  0  0  0
   13.8468    4.8997   -8.1310 C   0  0  0  0  0  0  0  0  0  0  0  0
   15.1634    4.9580   -7.5043 N   0  0  0  0  0  0  0  0  0  0  0  0
   15.4504    4.1065   -6.4275 C   0  0  0  0  0  0  0  0  0  0  0  0
   14.6174    3.3687   -5.9192 O   0  0  0  0  0  0  0  0  0  0  0  0
   16.8763    4.0775   -5.9059 C   0  0  0  0  0  0  0  0  0  0  0  0
   17.7422    3.1812   -6.8114 C   0  0  2  0  0  0  0  0  0  0  0  0
   17.3439    1.7886   -6.6151 N   0  0  0  0  0  0  0  0  0  0  0  0
   16.4270    1.1595   -7.4399 C   0  0  0  0  0  0  0  0  0  0  0  0
   15.9906    1.6956   -8.4507 O   0  0  0  0  0  0  0  0  0  0  0  0
   16.1211   -0.3074   -7.1070 C   0  0  1  0  0  0  0  0  0  0  0  0
   15.9788   -0.6627   -5.6940 N   0  0  0  0  0  0  0  0  0  0  0  0
   17.0697   -1.0179   -4.8971 C   0  0  0  0  0  0  0  0  0  0  0  0
   18.2206   -0.8320   -5.2723 O   0  0  0  0  0  0  0  0  0  0  0  0
   16.7514   -1.6967   -3.5577 C   0  0  2  0  0  0  0  0  0  0  0  0
   17.7969   -1.3748   -2.4619 C   0  0  0  0  0  0  0  0  0  0  0  0
   17.4688   -2.0712   -1.1377 C   0  0  0  0  0  0  0  0  0  0  0  0
   17.9035    0.1321   -2.2135 C   0  0  0  0  0  0  0  0  0  0  0  0
   16.6672   -3.1674   -3.8283 C   0  0  0  0  0  0  0  0  0  0  0  0
   15.6790   -3.8522   -3.1839 O   0  0  0  0  0  0  0  0  0  0  0  0
   15.7501   -5.2048   -3.5315 N   0  0  0  0  0  0  0  0  0  0  0  0
   16.7789   -5.3027   -4.3834 C   0  0  0  0  0  0  0  0  0  0  0  0
   17.1572   -6.6089   -4.9665 C   0  0  0  0  0  0  0  0  0  0  0  0
   17.3781   -4.0452   -4.6123 C   0  0  0  0  0  0  0  0  0  0  0  0
   14.5764   -0.8443   -5.3437 C   0  0  0  0  0  0  0  0  0  0  0  0
   13.7912   -0.4575   -6.5834 C   0  0  2  0  0  0  0  0  0  0  0  0
   12.6286   -1.2742   -6.7384 O   0  0  0  0  0  0  0  0  0  0  0  0
   14.7841   -0.7156   -7.7007 C   0  0  0  0  0  0  0  0  0  0  0  0
   19.2544    3.3472   -6.7027 C   0  0  0  0  0  0  0  0  0  0  0  0
   19.8705    4.5113   -6.2371 C   0  0  0  0  0  0  0  0  0  0  0  0
   21.2474    4.6736   -6.2775 C   0  0  0  0  0  0  0  0  0  0  0  0
   22.0721    3.6838   -6.7981 C   0  0  0  0  0  0  0  0  0  0  0  0
   23.5194    3.8576   -6.8845 C   0  0  0  0  0  0  0  0  0  0  0  0
   24.3810    3.7724   -7.9733 C   0  0  0  0  0  0  0  0  0  0  0  0
   24.0202    3.5329   -9.3885 C   0  0  0  0  0  0  0  0  0  0  0  0
   25.7197    3.9364   -7.6785 N   0  0  0  0  0  0  0  0  0  0  0  0
   25.8649    4.1759   -6.3957 C   0  0  0  0  0  0  0  0  0  0  0  0
   24.4324    4.2192   -5.4689 S   0  0  0  0  0  0  0  0  0  0  0  0
   21.4706    2.5179   -7.2500 C   0  0  0  0  0  0  0  0  0  0  0  0
   20.0982    2.3559   -7.2020 C   0  0  0  0  0  0  0  0  0  0  0  0
   16.0519    5.9674   -8.0787 C   0  0  0  0  0  0  0  0  0  0  0  0
   15.4162    7.3505   -8.0121 C   0  0  0  0  0  0  0  0  0  0  0  0
   14.1245    7.1999   -9.7305 H   0  0  0  0  0  0  0  0  0  0  0  0
   13.5544    8.3278   -8.5095 H   0  0  0  0  0  0  0  0  0  0  0  0
   12.9381    6.5035   -7.0145 H   0  0  0  0  0  0  0  0  0  0  0  0
   12.2035    6.2241   -8.5892 H   0  0  0  0  0  0  0  0  0  0  0  0
   13.2282    4.1261   -7.6712 H   0  0  0  0  0  0  0  0  0  0  0  0
   13.9912    4.6015   -9.1753 H   0  0  0  0  0  0  0  0  0  0  0  0
   17.2335    5.1038   -5.8190 H   0  0  0  0  0  0  0  0  0  0  0  0
   16.8604    3.6882   -4.8814 H   0  0  0  0  0  0  0  0  0  0  0  0
   17.5068    3.4390   -7.8483 H   0  0  0  0  0  0  0  0  0  0  0  0
   17.7570    1.2607   -5.8510 H   0  0  0  0  0  0  0  0  0  0  0  0
   16.9297   -0.8974   -7.5481 H   0  0  0  0  0  0  0  0  0  0  0  0
   15.7792   -1.3444   -3.2001 H   0  0  0  0  0  0  0  0  0  0  0  0
   18.7814   -1.7297   -2.7748 H   0  0  0  0  0  0  0  0  0  0  0  0
   18.1868   -1.7915   -0.3608 H   0  0  0  0  0  0  0  0  0  0  0  0
   17.5128   -3.1600   -1.2305 H   0  0  0  0  0  0  0  0  0  0  0  0
   16.4694   -1.8033   -0.7802 H   0  0  0  0  0  0  0  0  0  0  0  0
   18.2248    0.6722   -3.1083 H   0  0  0  0  0  0  0  0  0  0  0  0
   18.6391    0.3464   -1.4322 H   0  0  0  0  0  0  0  0  0  0  0  0
   16.9446    0.5526   -1.8948 H   0  0  0  0  0  0  0  0  0  0  0  0
   16.4021   -6.9464   -5.6830 H   0  0  0  0  0  0  0  0  0  0  0  0
   17.2599   -7.3705   -4.1885 H   0  0  0  0  0  0  0  0  0  0  0  0
   18.1150   -6.5439   -5.4913 H   0  0  0  0  0  0  0  0  0  0  0  0
   18.2194   -3.8164   -5.2515 H   0  0  0  0  0  0  0  0  0  0  0  0
   14.3949   -1.8866   -5.0594 H   0  0  0  0  0  0  0  0  0  0  0  0
   14.3197   -0.2095   -4.4891 H   0  0  0  0  0  0  0  0  0  0  0  0
   13.4955    0.5976   -6.5441 H   0  0  0  0  0  0  0  0  0  0  0  0
   12.0794   -0.8765   -7.4387 H   0  0  0  0  0  0  0  0  0  0  0  0
   14.5170   -0.1604   -8.5991 H   0  0  0  0  0  0  0  0  0  0  0  0
   14.7898   -1.7805   -7.9600 H   0  0  0  0  0  0  0  0  0  0  0  0
   19.2881    5.3410   -5.8547 H   0  0  0  0  0  0  0  0  0  0  0  0
   21.6714    5.6067   -5.9182 H   0  0  0  0  0  0  0  0  0  0  0  0
   23.7844    2.4800   -9.5492 H   0  0  0  0  0  0  0  0  0  0  0  0
   24.8467    3.7934  -10.0557 H   0  0  0  0  0  0  0  0  0  0  0  0
   23.1540    4.1326   -9.6815 H   0  0  0  0  0  0  0  0  0  0  0  0
   26.8338    4.3394   -5.9454 H   0  0  0  0  0  0  0  0  0  0  0  0
   22.0689    1.7092   -7.6564 H   0  0  0  0  0  0  0  0  0  0  0  0
   19.6878    1.4292   -7.5892 H   0  0  0  0  0  0  0  0  0  0  0  0
   17.0272    5.9849   -7.5928 H   0  0  0  0  0  0  0  0  0  0  0  0
   16.2217    5.6915   -9.1218 H   0  0  0  0  0  0  0  0  0  0  0  0
   16.0581    8.0821   -8.5128 H   0  0  0  0  0  0  0  0  0  0  0  0
   15.3306    7.6626   -6.9655 H   0  0  0  0  0  0  0  0  0  0  0  0
  1 44  1  0  0  0  0
  1 45  1  0  0  0  0
  1  2  1  0  0  0  0
  1 43  1  0  0  0  0
  2 46  1  0  0  0  0
  2 47  1  0  0  0  0
  2  3  1  0  0  0  0
  3 48  1  0  0  0  0
  3 49  1  0  0  0  0
  3  4  1  0  0  0  0
  4 42  1  0  0  0  0
  4  5  1  0  0  0  0
  5  6  2  0  0  0  0
  5  7  1  0  0  0  0
  7 50  1  0  0  0  0
  7 51  1  0  0  0  0
  8  7  1  0  0  0  0
  8 52  1  0  0  0  0
  8 30  1  0  0  0  0
  8  9  1  0  0  0  0
  9 53  1  0  0  0  0
  9 10  1  0  0  0  0
 10 11  2  0  0  0  0
 12 10  1  0  0  0  0
 12 54  1  0  0  0  0
 12 29  1  0  0  0  0
 12 13  1  0  0  0  0
 13 26  1  0  0  0  0
 13 14  1  0  0  0  0
 14 15  2  0  0  0  0
 16 14  1  0  0  0  0
 16 55  1  0  0  0  0
 16 17  1  0  0  0  0
 16 20  1  0  0  0  0
 17 56  1  0  0  0  0
 17 19  1  0  0  0  0
 17 18  1  0  0  0  0
 18 57  1  0  0  0  0
 18 58  1  0  0  0  0
 18 59  1  0  0  0  0
 19 60  1  0  0  0  0
 19 61  1  0  0  0  0
 19 62  1  0  0  0  0
 20 25  2  0  0  0  0
 20 21  1  0  0  0  0
 21 22  1  0  0  0  0
 22 23  2  0  0  0  0
 23 25  1  0  0  0  0
 23 24  1  0  0  0  0
 24 63  1  0  0  0  0
 24 64  1  0  0  0  0
 24 65  1  0  0  0  0
 25 66  1  0  0  0  0
 27 26  1  0  0  0  0
 26 67  1  0  0  0  0
 26 68  1  0  0  0  0
 27 29  1  0  0  0  0
 27 69  1  0  0  0  0
 27 28  1  0  0  0  0
 28 70  1  0  0  0  0
 29 71  1  0  0  0  0
 29 72  1  0  0  0  0
 30 31  1  0  0  0  0
 30 41  2  0  0  0  0
 31 73  1  0  0  0  0
 31 32  2  0  0  0  0
 32 74  1  0  0  0  0
 32 33  1  0  0  0  0
 33 40  2  0  0  0  0
 33 34  1  0  0  0  0
 34 35  2  0  0  0  0
 34 39  1  0  0  0  0
 35 36  1  0  0  0  0
 35 37  1  0  0  0  0
 36 75  1  0  0  0  0
 36 76  1  0  0  0  0
 36 77  1  0  0  0  0
 37 38  2  0  0  0  0
 38 78  1  0  0  0  0
 38 39  1  0  0  0  0
 40 79  1  0  0  0  0
 40 41  1  0  0  0  0
 41 80  1  0  0  0  0
 42 81  1  0  0  0  0
 42 82  1  0  0  0  0
 42 43  1  0  0  0  0
 43 83  1  0  0  0  0
 43 84  1  0  0  0  0
M  ZZC   1 c1
M  ZZC   2 c2
M  ZZC   3 c3
M  ZZC   4 n1
M  ZZC   5 c4
M  ZZC   6 o1
M  ZZC   7 c5
M  ZZC   8 c6
M  ZZC   9 n2
M  ZZC  10 c7
M  ZZC  11 o2
M  ZZC  12 c8
M  ZZC  13 n3
M  ZZC  14 c9
M  ZZC  15 o3
M  ZZC  16 c10
M  ZZC  17 c11
M  ZZC  18 c12
M  ZZC  19 c13
M  ZZC  20 c14
M  ZZC  21 o4
M  ZZC  22 n4
M  ZZC  23 c15
M  ZZC  24 c16
M  ZZC  25 c17
M  ZZC  26 c18
M  ZZC  27 c19
M  ZZC  28 o5
M  ZZC  29 c20
M  ZZC  30 c21
M  ZZC  31 c22
M  ZZC  32 c23
M  ZZC  33 c24
M  ZZC  34 c25
M  ZZC  35 c26
M  ZZC  36 c27
M  ZZC  37 n5
M  ZZC  38 c28
M  ZZC  39 s1
M  ZZC  40 c29
M  ZZC  41 c30
M  ZZC  42 c31
M  ZZC  43 c32
M  ZZC  44 h11
M  ZZC  45 h12
M  ZZC  46 h21
M  ZZC  47 h22
M  ZZC  48 h31
M  ZZC  49 h32
M  ZZC  50 h51
M  ZZC  51 h52
M  ZZC  52 h61
M  ZZC  53 h01
M  ZZC  54 h81
M  ZZC  55 h101
M  ZZC  56 h111
M  ZZC  57 h121
M  ZZC  58 h122
M  ZZC  59 h123
M  ZZC  60 h131
M  ZZC  61 h132
M  ZZC  62 h133
M  ZZC  63 h161
M  ZZC  64 h162
M  ZZC  65 h163
M  ZZC  66 h171
M  ZZC  67 h181
M  ZZC  68 h182
M  ZZC  69 h191
M  ZZC  70 h02
M  ZZC  71 h201
M  ZZC  72 h202
M  ZZC  73 h221
M  ZZC  74 h231
M  ZZC  75 h271
M  ZZC  76 h272
M  ZZC  77 h273
M  ZZC  78 h281
M  ZZC  79 h291
M  ZZC  80 h301
M  ZZC  81 h311
M  ZZC  82 h312
M  ZZC  83 h321
M  ZZC  84 h322
M  ZZM   1 1
M  ZZI   1 112
M  ZZM   2 1
M  ZZI   2 112
M  ZZM   3 1
M  ZZI   3 112
M  ZZM   4 10
M  ZZI   4 192
M  ZZM   5 3
M  ZZI   5 121
M  ZZM   6 7
M  ZZI   6 81
M  ZZM   7 1
M  ZZI   7 112
M  ZZM   8 1
M  ZZI   8 113
M  ZZM   9 10
M  ZZI   9 211
M  ZZM  10 3
M  ZZI  10 121
M  ZZM  11 7
M  ZZI  11 81
M  ZZM  12 1
M  ZZI  12 113
M  ZZM  13 10
M  ZZI  13 192
M  ZZM  14 3
M  ZZI  14 121
M  ZZM  15 7
M  ZZI  15 81
M  ZZM  16 1
M  ZZI  16 113
M  ZZM  17 1
M  ZZI  17 113
M  ZZM  18 1
M  ZZI  18 111
M  ZZM  19 1
M  ZZI  19 111
M  ZZM  20 63
M  ZZI  20 104
M  ZZM  21 59
M  ZZI  21 56
M  ZZM  22 65
M  ZZI  22 207
M  ZZM  23 64
M  ZZI  23 105
M  ZZM  24 1
M  ZZI  24 111
M  ZZM  25 64
M  ZZI  25 105
M  ZZM  26 1
M  ZZI  26 112
M  ZZM  27 1
M  ZZI  27 113
M  ZZM  28 6
M  ZZI  28 60
M  ZZM  29 1
M  ZZI  29 112
M  ZZM  30 37
M  ZZI  30 124
M  ZZM  31 37
M  ZZI  31 125
M  ZZM  32 37
M  ZZI  32 125
M  ZZM  33 37
M  ZZI  33 124
M  ZZM  34 63
M  ZZI  34 104
M  ZZM  35 64
M  ZZI  35 105
M  ZZM  36 1
M  ZZI  36 111
M  ZZM  37 66
M  ZZI  37 222
M  ZZM  38 63
M  ZZI  38 104
M  ZZM  39 44
M  ZZI  39 248
M  ZZM  40 37
M  ZZI  40 125
M  ZZM  41 37
M  ZZI  41 125
M  ZZM  42 1
M  ZZI  42 112
M  ZZM  43 1
M  ZZI  43 112
M  ZZM  44 5
M  ZZI  44 1
M  ZZM  45 5
M  ZZI  45 1
M  ZZM  46 5
M  ZZI  46 1
M  ZZM  47 5
M  ZZI  47 1
M  ZZM  48 5
M  ZZI  48 1
M  ZZM  49 5
M  ZZI  49 1
M  ZZM  50 5
M  ZZI  50 1
M  ZZM  51 5
M  ZZI  51 1
M  ZZM  52 5
M  ZZI  52 1
M  ZZM  53 28
M  ZZI  53 11
M  ZZM  54 5
M  ZZI  54 1
M  ZZM  55 5
M  ZZI  55 1
M  ZZM  56 5
M  ZZI  56 1
M  ZZM  57 5
M  ZZI  57 1
M  ZZM  58 5
M  ZZI  58 1
M  ZZM  59 5
M  ZZI  59 1
M  ZZM  60 5
M  ZZI  60 1
M  ZZM  61 5
M  ZZI  61 1
M  ZZM  62 5
M  ZZI  62 1
M  ZZM  63 5
M  ZZI  63 1
M  ZZM  64 5
M  ZZI  64 1
M  ZZM  65 5
M  ZZI  65 1
M  ZZM  66 5
M  ZZI  66 1
M  ZZM  67 5
M  ZZI  67 1
M  ZZM  68 5
M  ZZI  68 1
M  ZZM  69 5
M  ZZI  69 1
M  ZZM  70 21
M  ZZI  70 20
M  ZZM  71 5
M  ZZI  71 1
M  ZZM  72 5
M  ZZI  72 1
M  ZZM  73 5
M  ZZI  73 1
M  ZZM  74 5
M  ZZI  74 1
M  ZZM  75 5
M  ZZI  75 1
M  ZZM  76 5
M  ZZI  76 1
M  ZZM  77 5
M  ZZI  77 1
M  ZZM  78 5
M  ZZI  78 1
M  ZZM  79 5
M  ZZI  79 1
M  ZZM  80 5
M  ZZI  80 1
M  ZZM  81 5
M  ZZI  81 1
M  ZZM  82 5
M  ZZI  82 1
M  ZZM  83 5
M  ZZI  83 1
M  ZZM  84 5
M  ZZI  84 1
M  END
> <IX>
1

> <NAME>
VHL_5T8E_56.pdb

> <Score>
-12.623222

> <Natom>
84

> <Nflex>
11

> <Hbond>
-4.962964

> <Hphob>
-7.294928

> <VwInt>
-37.101651

> <Dsolv>
22.390757

> <SolEl>
22.748904

> <Eintl>
5.858309

> <RecConf>
ND

> <projPath>
VHL_maps/

> <NAME_>
VHL_5T8E_56.pdb

$$$$
