VHL_4QNQ_1.pdb
  MOLSOFT 04032206393D

 64 66  0  0  1  0  0  0  0  0999 V2000
   17.5971   -4.5912   -4.8773 N   0  3  0  0  0  0  0  0  0  0  0  0
   16.5772   -3.4803   -4.8202 C   0  0  1  0  0  0  0  0  0  0  0  0
   15.8846   -3.4490   -3.4177 C   0  0  0  0  0  0  0  0  0  0  0  0
   14.6108   -2.5924   -3.4774 C   0  0  0  0  0  0  0  0  0  0  0  0
   15.4701   -4.8624   -2.9760 C   0  0  0  0  0  0  0  0  0  0  0  0
   16.8017   -2.8711   -2.3256 C   0  0  0  0  0  0  0  0  0  0  0  0
   17.2223   -2.1447   -5.2206 C   0  0  0  0  0  0  0  0  0  0  0  0
   18.3594   -1.8807   -4.8620 O   0  0  0  0  0  0  0  0  0  0  0  0
   16.4862   -1.2396   -5.9829 N   0  0  0  0  0  0  0  0  0  0  0  0
   17.0412    0.0735   -6.2875 C   0  0  2  0  0  0  0  0  0  0  0  0
   17.1068    0.9898   -5.0728 C   0  0  0  0  0  0  0  0  0  0  0  0
   16.3413    0.9014   -4.1224 O   0  0  0  0  0  0  0  0  0  0  0  0
   18.0572    1.9811   -5.2217 N   0  0  0  0  0  0  0  0  0  0  0  0
   18.0891    3.1444   -4.3589 C   0  0  1  0  0  0  0  0  0  0  0  0
   19.5218    3.6363   -4.1658 C   0  0  0  0  0  0  0  0  0  0  0  0
   17.1785    4.2098   -4.9345 C   0  0  0  0  0  0  0  0  0  0  0  0
   17.4319    4.7989   -6.1735 C   0  0  0  0  0  0  0  0  0  0  0  0
   16.5755    5.7511   -6.6974 C   0  0  0  0  0  0  0  0  0  0  0  0
   15.4417    6.1452   -5.9970 C   0  0  0  0  0  0  0  0  0  0  0  0
   14.5825    7.1948   -6.5217 C   0  0  0  0  0  0  0  0  0  0  0  0
   13.8797    7.2928   -7.7162 C   0  0  0  0  0  0  0  0  0  0  0  0
   13.7832    6.2711   -8.7842 C   0  0  0  0  0  0  0  0  0  0  0  0
   13.2138    8.4877   -7.9000 N   0  0  0  0  0  0  0  0  0  0  0  0
   13.4127    9.2656   -6.8596 C   0  0  0  0  0  0  0  0  0  0  0  0
   14.3640    8.6290   -5.6009 S   0  0  0  0  0  0  0  0  0  0  0  0
   15.1696    5.5412   -4.7742 C   0  0  0  0  0  0  0  0  0  0  0  0
   16.0250    4.5868   -4.2527 C   0  0  0  0  0  0  0  0  0  0  0  0
   16.1001    0.6868   -7.3183 C   0  0  0  0  0  0  0  0  0  0  0  0
   15.4245   -0.5135   -7.9452 C   0  0  1  0  0  0  0  0  0  0  0  0
   16.2360   -1.0474   -9.0016 O   0  0  0  0  0  0  0  0  0  0  0  0
   15.3184   -1.5087   -6.7996 C   0  0  0  0  0  0  0  0  0  0  0  0
   18.2111   -4.4983   -5.6977 H   0  0  0  0  0  0  0  0  0  0  0  0
   17.1669   -5.5240   -4.9182 H   0  0  0  0  0  0  0  0  0  0  0  0
   18.2206   -4.5822   -4.0627 H   0  0  0  0  0  0  0  0  0  0  0  0
   15.8679   -3.7601   -5.5903 H   0  0  0  0  0  0  0  0  0  0  0  0
   14.8407   -1.5465   -3.7052 H   0  0  0  0  0  0  0  0  0  0  0  0
   14.0769   -2.6052   -2.5221 H   0  0  0  0  0  0  0  0  0  0  0  0
   13.9196   -2.9383   -4.2504 H   0  0  0  0  0  0  0  0  0  0  0  0
   14.8621   -4.8393   -2.0662 H   0  0  0  0  0  0  0  0  0  0  0  0
   16.3322   -5.4996   -2.7589 H   0  0  0  0  0  0  0  0  0  0  0  0
   14.8795   -5.3586   -3.7473 H   0  0  0  0  0  0  0  0  0  0  0  0
   16.3260   -2.9251   -1.3408 H   0  0  0  0  0  0  0  0  0  0  0  0
   17.0402   -1.8184   -2.5044 H   0  0  0  0  0  0  0  0  0  0  0  0
   17.7470   -3.4146   -2.2527 H   0  0  0  0  0  0  0  0  0  0  0  0
   18.0475   -0.0597   -6.6913 H   0  0  0  0  0  0  0  0  0  0  0  0
   18.6562    1.9808   -6.0402 H   0  0  0  0  0  0  0  0  0  0  0  0
   17.7091    2.8418   -3.3766 H   0  0  0  0  0  0  0  0  0  0  0  0
   20.1314    2.8618   -3.6900 H   0  0  0  0  0  0  0  0  0  0  0  0
   19.5533    4.5277   -3.5316 H   0  0  0  0  0  0  0  0  0  0  0  0
   20.0053    3.8833   -5.1165 H   0  0  0  0  0  0  0  0  0  0  0  0
   18.3081    4.5171   -6.7496 H   0  0  0  0  0  0  0  0  0  0  0  0
   16.8148    6.2039   -7.6555 H   0  0  0  0  0  0  0  0  0  0  0  0
   14.7214    6.2045   -9.3423 H   0  0  0  0  0  0  0  0  0  0  0  0
   12.9885    6.5193   -9.4932 H   0  0  0  0  0  0  0  0  0  0  0  0
   13.5576    5.2850   -8.3676 H   0  0  0  0  0  0  0  0  0  0  0  0
   13.0041   10.2603   -6.7846 H   0  0  0  0  0  0  0  0  0  0  0  0
   14.2806    5.8114   -4.2112 H   0  0  0  0  0  0  0  0  0  0  0  0
   15.7790    4.1308   -3.2978 H   0  0  0  0  0  0  0  0  0  0  0  0
   15.3508    1.3252   -6.8358 H   0  0  0  0  0  0  0  0  0  0  0  0
   16.6431    1.2982   -8.0452 H   0  0  0  0  0  0  0  0  0  0  0  0
   14.4492   -0.2554   -8.3585 H   0  0  0  0  0  0  0  0  0  0  0  0
   17.1681   -0.9818   -8.7209 H   0  0  0  0  0  0  0  0  0  0  0  0
   15.3116   -2.5424   -7.1526 H   0  0  0  0  0  0  0  0  0  0  0  0
   14.4328   -1.3139   -6.1863 H   0  0  0  0  0  0  0  0  0  0  0  0
  1 32  1  0  0  0  0
  1 33  1  0  0  0  0
  1 34  1  0  0  0  0
  2  1  1  0  0  0  0
  2 35  1  0  0  0  0
  2  3  1  0  0  0  0
  2  7  1  0  0  0  0
  3  4  1  0  0  0  0
  3  5  1  0  0  0  0
  3  6  1  0  0  0  0
  4 36  1  0  0  0  0
  4 37  1  0  0  0  0
  4 38  1  0  0  0  0
  5 39  1  0  0  0  0
  5 40  1  0  0  0  0
  5 41  1  0  0  0  0
  6 42  1  0  0  0  0
  6 43  1  0  0  0  0
  6 44  1  0  0  0  0
  7  8  2  0  0  0  0
  7  9  1  0  0  0  0
  9 31  1  0  0  0  0
 10  9  1  0  0  0  0
 10 28  1  0  0  0  0
 10 45  1  0  0  0  0
 10 11  1  0  0  0  0
 11 12  2  0  0  0  0
 11 13  1  0  0  0  0
 13 46  1  0  0  0  0
 14 13  1  0  0  0  0
 14 47  1  0  0  0  0
 14 15  1  0  0  0  0
 14 16  1  0  0  0  0
 15 48  1  0  0  0  0
 15 49  1  0  0  0  0
 15 50  1  0  0  0  0
 16 17  1  0  0  0  0
 16 27  2  0  0  0  0
 17 51  1  0  0  0  0
 17 18  2  0  0  0  0
 18 52  1  0  0  0  0
 18 19  1  0  0  0  0
 19 26  2  0  0  0  0
 19 20  1  0  0  0  0
 20 21  2  0  0  0  0
 20 25  1  0  0  0  0
 21 22  1  0  0  0  0
 21 23  1  0  0  0  0
 22 53  1  0  0  0  0
 22 54  1  0  0  0  0
 22 55  1  0  0  0  0
 23 24  2  0  0  0  0
 24 56  1  0  0  0  0
 24 25  1  0  0  0  0
 26 57  1  0  0  0  0
 26 27  1  0  0  0  0
 27 58  1  0  0  0  0
 29 28  1  0  0  0  0
 28 59  1  0  0  0  0
 28 60  1  0  0  0  0
 29 31  1  0  0  0  0
 29 61  1  0  0  0  0
 29 30  1  0  0  0  0
 30 62  1  0  0  0  0
 31 63  1  0  0  0  0
 31 64  1  0  0  0  0
M  ZZC   1 n1
M  ZZC   2 c1
M  ZZC   3 c2
M  ZZC   4 c3
M  ZZC   5 c4
M  ZZC   6 c5
M  ZZC   7 c6
M  ZZC   8 o1
M  ZZC   9 n2
M  ZZC  10 c7
M  ZZC  11 c8
M  ZZC  12 o2
M  ZZC  13 n3
M  ZZC  14 c9
M  ZZC  15 c10
M  ZZC  16 c11
M  ZZC  17 c12
M  ZZC  18 c13
M  ZZC  19 c14
M  ZZC  20 c15
M  ZZC  21 c16
M  ZZC  22 c17
M  ZZC  23 n4
M  ZZC  24 c18
M  ZZC  25 s1
M  ZZC  26 c19
M  ZZC  27 c20
M  ZZC  28 c21
M  ZZC  29 c22
M  ZZC  30 o3
M  ZZC  31 c23
M  ZZC  32 h11
M  ZZC  33 h12
M  ZZC  34 h13
M  ZZC  35 h01
M  ZZC  36 h31
M  ZZC  37 h32
M  ZZC  38 h33
M  ZZC  39 h41
M  ZZC  40 h42
M  ZZC  41 h43
M  ZZC  42 h51
M  ZZC  43 h52
M  ZZC  44 h53
M  ZZC  45 h71
M  ZZC  46 h02
M  ZZC  47 h91
M  ZZC  48 h101
M  ZZC  49 h102
M  ZZC  50 h103
M  ZZC  51 h121
M  ZZC  52 h131
M  ZZC  53 h171
M  ZZC  54 h172
M  ZZC  55 h173
M  ZZC  56 h181
M  ZZC  57 h191
M  ZZC  58 h201
M  ZZC  59 h211
M  ZZC  60 h212
M  ZZC  61 h221
M  ZZC  62 h03
M  ZZC  63 h231
M  ZZC  64 h232
M  ZZM   1 34
M  ZZI   1 231
M  ZZM   2 1
M  ZZI   2 113
M  ZZM   3 1
M  ZZI   3 110
M  ZZM   4 1
M  ZZI   4 111
M  ZZM   5 1
M  ZZI   5 111
M  ZZM   6 1
M  ZZI   6 111
M  ZZM   7 3
M  ZZI   7 121
M  ZZM   8 7
M  ZZI   8 81
M  ZZM   9 10
M  ZZI   9 192
M  ZZM  10 1
M  ZZI  10 113
M  ZZM  11 3
M  ZZI  11 121
M  ZZM  12 7
M  ZZI  12 81
M  ZZM  13 10
M  ZZI  13 211
M  ZZM  14 1
M  ZZI  14 113
M  ZZM  15 1
M  ZZI  15 111
M  ZZM  16 37
M  ZZI  16 124
M  ZZM  17 37
M  ZZI  17 125
M  ZZM  18 37
M  ZZI  18 125
M  ZZM  19 37
M  ZZI  19 124
M  ZZM  20 63
M  ZZI  20 104
M  ZZM  21 64
M  ZZI  21 105
M  ZZM  22 1
M  ZZI  22 111
M  ZZM  23 66
M  ZZI  23 222
M  ZZM  24 63
M  ZZI  24 104
M  ZZM  25 44
M  ZZI  25 248
M  ZZM  26 37
M  ZZI  26 125
M  ZZM  27 37
M  ZZI  27 125
M  ZZM  28 1
M  ZZI  28 112
M  ZZM  29 1
M  ZZI  29 113
M  ZZM  30 6
M  ZZI  30 60
M  ZZM  31 1
M  ZZI  31 112
M  ZZM  32 36
M  ZZI  32 17
M  ZZM  33 36
M  ZZI  33 17
M  ZZM  34 36
M  ZZI  34 17
M  ZZM  35 5
M  ZZI  35 1
M  ZZM  36 5
M  ZZI  36 1
M  ZZM  37 5
M  ZZI  37 1
M  ZZM  38 5
M  ZZI  38 1
M  ZZM  39 5
M  ZZI  39 1
M  ZZM  40 5
M  ZZI  40 1
M  ZZM  41 5
M  ZZI  41 1
M  ZZM  42 5
M  ZZI  42 1
M  ZZM  43 5
M  ZZI  43 1
M  ZZM  44 5
M  ZZI  44 1
M  ZZM  45 5
M  ZZI  45 1
M  ZZM  46 28
M  ZZI  46 11
M  ZZM  47 5
M  ZZI  47 1
M  ZZM  48 5
M  ZZI  48 1
M  ZZM  49 5
M  ZZI  49 1
M  ZZM  50 5
M  ZZI  50 1
M  ZZM  51 5
M  ZZI  51 1
M  ZZM  52 5
M  ZZI  52 1
M  ZZM  53 5
M  ZZI  53 1
M  ZZM  54 5
M  ZZI  54 1
M  ZZM  55 5
M  ZZI  55 1
M  ZZM  56 5
M  ZZI  56 1
M  ZZM  57 5
M  ZZI  57 1
M  ZZM  58 5
M  ZZI  58 1
M  ZZM  59 5
M  ZZI  59 1
M  ZZM  60 5
M  ZZI  60 1
M  ZZM  61 5
M  ZZI  61 1
M  ZZM  62 21
M  ZZI  62 20
M  ZZM  63 5
M  ZZI  63 1
M  ZZM  64 5
M  ZZI  64 1
M  CHG  1   1   1
M  END
> <IX>
1

> <NAME>
VHL_4QNQ_1.pdb

> <Score>
-14.288011

> <Natom>
64

> <Nflex>
7

> <Hbond>
-7.644182

> <Hphob>
-6.34507

> <VwInt>
-25.995411

> <Dsolv>
22.324646

> <SolEl>
18.011265

> <Eintl>
4.112432

> <RecConf>
ND

> <projPath>
VHL_maps/

> <NAME_>
VHL_4QNQ_1.pdb

$$$$
