VHL_5T8E_16.pdb
  MOLSOFT 04032206463D

 84 88  0  0  1  0  0  0  0  0999 V2000
   19.0467   -7.5810   -5.9140 C   0  0  0  0  0  0  0  0  0  0  0  0
   19.5791   -6.1673   -5.8230 C   0  0  0  0  0  0  0  0  0  0  0  0
   18.5041   -5.1294   -6.0623 C   0  0  0  0  0  0  0  0  0  0  0  0
   17.2835   -5.4139   -5.3107 N   0  0  0  0  0  0  0  0  0  0  0  0
   16.5626   -4.4848   -4.5688 C   0  0  0  0  0  0  0  0  0  0  0  0
   15.6130   -4.7905   -3.8612 O   0  0  0  0  0  0  0  0  0  0  0  0
   17.0026   -3.0482   -4.7172 C   0  0  0  0  0  0  0  0  0  0  0  0
   16.0102   -2.0806   -4.0607 C   0  0  2  0  0  0  0  0  0  0  0  0
   16.2387   -0.7371   -4.5572 N   0  0  0  0  0  0  0  0  0  0  0  0
   15.8268   -0.3543   -5.8231 C   0  0  0  0  0  0  0  0  0  0  0  0
   15.1696   -1.0655   -6.5731 O   0  0  0  0  0  0  0  0  0  0  0  0
   16.2384    1.0754   -6.1787 C   0  0  2  0  0  0  0  0  0  0  0  0
   15.2859    2.0036   -5.5874 N   0  0  0  0  0  0  0  0  0  0  0  0
   15.4330    2.4231   -4.2652 C   0  0  0  0  0  0  0  0  0  0  0  0
   16.3913    2.0619   -3.5933 O   0  0  0  0  0  0  0  0  0  0  0  0
   14.3528    3.3375   -3.6800 C   0  0  2  0  0  0  0  0  0  0  0  0
   14.9414    4.7298   -3.3440 C   0  0  0  0  0  0  0  0  0  0  0  0
   13.9018    5.6561   -2.7063 C   0  0  0  0  0  0  0  0  0  0  0  0
   15.5063    5.4185   -4.5880 C   0  0  0  0  0  0  0  0  0  0  0  0
   13.7872    2.6612   -2.4676 C   0  0  0  0  0  0  0  0  0  0  0  0
   12.4515    2.8291   -2.2632 O   0  0  0  0  0  0  0  0  0  0  0  0
   12.0730    2.1923   -1.0804 N   0  0  0  0  0  0  0  0  0  0  0  0
   13.1876    1.6163   -0.6142 C   0  0  0  0  0  0  0  0  0  0  0  0
   13.1619    0.8223    0.6326 C   0  0  0  0  0  0  0  0  0  0  0  0
   14.2941    1.8916   -1.4450 C   0  0  0  0  0  0  0  0  0  0  0  0
   14.3091    2.4502   -6.5675 C   0  0  0  0  0  0  0  0  0  0  0  0
   14.7296    1.8210   -7.8947 C   0  0  1  0  0  0  0  0  0  0  0  0
   14.7236    2.7685   -8.9656 O   0  0  0  0  0  0  0  0  0  0  0  0
   16.1603    1.3643   -7.6643 C   0  0  0  0  0  0  0  0  0  0  0  0
   16.0735   -2.1390   -2.5450 C   0  0  0  0  0  0  0  0  0  0  0  0
   14.9172   -2.4013   -1.8207 C   0  0  0  0  0  0  0  0  0  0  0  0
   14.9653   -2.6006   -0.4547 C   0  0  0  0  0  0  0  0  0  0  0  0
   16.1632   -2.5415    0.2479 C   0  0  0  0  0  0  0  0  0  0  0  0
   16.2112   -2.8545    1.6761 C   0  0  0  0  0  0  0  0  0  0  0  0
   17.1108   -3.6198    2.4138 C   0  0  0  0  0  0  0  0  0  0  0  0
   18.3036   -4.3482    1.9190 C   0  0  0  0  0  0  0  0  0  0  0  0
   16.8301   -3.7190    3.7619 N   0  0  0  0  0  0  0  0  0  0  0  0
   15.7395   -3.0439    4.0408 C   0  0  0  0  0  0  0  0  0  0  0  0
   14.9900   -2.2481    2.7321 S   0  0  0  0  0  0  0  0  0  0  0  0
   17.3104   -2.2067   -0.4647 C   0  0  0  0  0  0  0  0  0  0  0  0
   17.2655   -2.0008   -1.8342 C   0  0  0  0  0  0  0  0  0  0  0  0
   16.7624   -6.7632   -5.4273 C   0  0  0  0  0  0  0  0  0  0  0  0
   17.8125   -7.7802   -5.0515 C   0  0  0  0  0  0  0  0  0  0  0  0
   18.7831   -7.7811   -6.9527 H   0  0  0  0  0  0  0  0  0  0  0  0
   19.8322   -8.2833   -5.6212 H   0  0  0  0  0  0  0  0  0  0  0  0
   19.9883   -6.0200   -4.8287 H   0  0  0  0  0  0  0  0  0  0  0  0
   20.3982   -6.0238   -6.5334 H   0  0  0  0  0  0  0  0  0  0  0  0
   18.9021   -4.1420   -5.8295 H   0  0  0  0  0  0  0  0  0  0  0  0
   18.2472   -5.1291   -7.1174 H   0  0  0  0  0  0  0  0  0  0  0  0
   18.0081   -2.9341   -4.3021 H   0  0  0  0  0  0  0  0  0  0  0  0
   17.0671   -2.8359   -5.7894 H   0  0  0  0  0  0  0  0  0  0  0  0
   14.9969   -2.3544   -4.3806 H   0  0  0  0  0  0  0  0  0  0  0  0
   16.6893   -0.0527   -3.9537 H   0  0  0  0  0  0  0  0  0  0  0  0
   17.2513    1.2547   -5.7981 H   0  0  0  0  0  0  0  0  0  0  0  0
   13.5413    3.4625   -4.4020 H   0  0  0  0  0  0  0  0  0  0  0  0
   15.7644    4.6130   -2.6291 H   0  0  0  0  0  0  0  0  0  0  0  0
   14.3189    6.6517   -2.5280 H   0  0  0  0  0  0  0  0  0  0  0  0
   13.5621    5.2786   -1.7380 H   0  0  0  0  0  0  0  0  0  0  0  0
   13.0242    5.7755   -3.3498 H   0  0  0  0  0  0  0  0  0  0  0  0
   16.2991    4.8157   -5.0414 H   0  0  0  0  0  0  0  0  0  0  0  0
   15.9349    6.3954   -4.3434 H   0  0  0  0  0  0  0  0  0  0  0  0
   14.7399    5.5669   -5.3539 H   0  0  0  0  0  0  0  0  0  0  0  0
   12.7134   -0.1595    0.4539 H   0  0  0  0  0  0  0  0  0  0  0  0
   12.5835    1.3314    1.4094 H   0  0  0  0  0  0  0  0  0  0  0  0
   14.1726    0.6665    1.0195 H   0  0  0  0  0  0  0  0  0  0  0  0
   15.3176    1.5737   -1.3068 H   0  0  0  0  0  0  0  0  0  0  0  0
   13.3172    2.1024   -6.2612 H   0  0  0  0  0  0  0  0  0  0  0  0
   14.2937    3.5436   -6.6070 H   0  0  0  0  0  0  0  0  0  0  0  0
   14.0843    0.9760   -8.1589 H   0  0  0  0  0  0  0  0  0  0  0  0
   13.7954    2.9590   -9.1930 H   0  0  0  0  0  0  0  0  0  0  0  0
   16.8508    2.1784   -7.9100 H   0  0  0  0  0  0  0  0  0  0  0  0
   16.4312    0.5123   -8.2978 H   0  0  0  0  0  0  0  0  0  0  0  0
   13.9629   -2.5039   -2.3295 H   0  0  0  0  0  0  0  0  0  0  0  0
   14.0447   -2.8473    0.0555 H   0  0  0  0  0  0  0  0  0  0  0  0
   18.5298   -5.2067    2.5586 H   0  0  0  0  0  0  0  0  0  0  0  0
   19.1782   -3.6917    1.9141 H   0  0  0  0  0  0  0  0  0  0  0  0
   18.1537   -4.7279    0.9054 H   0  0  0  0  0  0  0  0  0  0  0  0
   15.3339   -2.9894    5.0409 H   0  0  0  0  0  0  0  0  0  0  0  0
   18.2671   -2.1152    0.0404 H   0  0  0  0  0  0  0  0  0  0  0  0
   18.1909   -1.7623   -2.3497 H   0  0  0  0  0  0  0  0  0  0  0  0
   15.8798   -6.8757   -4.8061 H   0  0  0  0  0  0  0  0  0  0  0  0
   16.4466   -6.9125   -6.4625 H   0  0  0  0  0  0  0  0  0  0  0  0
   17.4167   -8.7918   -5.1766 H   0  0  0  0  0  0  0  0  0  0  0  0
   18.0669   -7.6559   -3.9970 H   0  0  0  0  0  0  0  0  0  0  0  0
  1 44  1  0  0  0  0
  1 45  1  0  0  0  0
  1  2  1  0  0  0  0
  1 43  1  0  0  0  0
  2 46  1  0  0  0  0
  2 47  1  0  0  0  0
  2  3  1  0  0  0  0
  3 48  1  0  0  0  0
  3 49  1  0  0  0  0
  3  4  1  0  0  0  0
  4 42  1  0  0  0  0
  4  5  1  0  0  0  0
  5  6  2  0  0  0  0
  5  7  1  0  0  0  0
  7 50  1  0  0  0  0
  7 51  1  0  0  0  0
  8  7  1  0  0  0  0
  8 52  1  0  0  0  0
  8 30  1  0  0  0  0
  8  9  1  0  0  0  0
  9 53  1  0  0  0  0
  9 10  1  0  0  0  0
 10 11  2  0  0  0  0
 12 10  1  0  0  0  0
 12 54  1  0  0  0  0
 12 29  1  0  0  0  0
 12 13  1  0  0  0  0
 13 26  1  0  0  0  0
 13 14  1  0  0  0  0
 14 15  2  0  0  0  0
 16 14  1  0  0  0  0
 16 55  1  0  0  0  0
 16 17  1  0  0  0  0
 16 20  1  0  0  0  0
 17 56  1  0  0  0  0
 17 19  1  0  0  0  0
 17 18  1  0  0  0  0
 18 57  1  0  0  0  0
 18 58  1  0  0  0  0
 18 59  1  0  0  0  0
 19 60  1  0  0  0  0
 19 61  1  0  0  0  0
 19 62  1  0  0  0  0
 20 25  2  0  0  0  0
 20 21  1  0  0  0  0
 21 22  1  0  0  0  0
 22 23  2  0  0  0  0
 23 25  1  0  0  0  0
 23 24  1  0  0  0  0
 24 63  1  0  0  0  0
 24 64  1  0  0  0  0
 24 65  1  0  0  0  0
 25 66  1  0  0  0  0
 27 26  1  0  0  0  0
 26 67  1  0  0  0  0
 26 68  1  0  0  0  0
 27 29  1  0  0  0  0
 27 69  1  0  0  0  0
 27 28  1  0  0  0  0
 28 70  1  0  0  0  0
 29 71  1  0  0  0  0
 29 72  1  0  0  0  0
 30 31  1  0  0  0  0
 30 41  2  0  0  0  0
 31 73  1  0  0  0  0
 31 32  2  0  0  0  0
 32 74  1  0  0  0  0
 32 33  1  0  0  0  0
 33 40  2  0  0  0  0
 33 34  1  0  0  0  0
 34 35  2  0  0  0  0
 34 39  1  0  0  0  0
 35 36  1  0  0  0  0
 35 37  1  0  0  0  0
 36 75  1  0  0  0  0
 36 76  1  0  0  0  0
 36 77  1  0  0  0  0
 37 38  2  0  0  0  0
 38 78  1  0  0  0  0
 38 39  1  0  0  0  0
 40 79  1  0  0  0  0
 40 41  1  0  0  0  0
 41 80  1  0  0  0  0
 42 81  1  0  0  0  0
 42 82  1  0  0  0  0
 42 43  1  0  0  0  0
 43 83  1  0  0  0  0
 43 84  1  0  0  0  0
M  ZZC   1 c1
M  ZZC   2 c2
M  ZZC   3 c3
M  ZZC   4 n1
M  ZZC   5 c4
M  ZZC   6 o1
M  ZZC   7 c5
M  ZZC   8 c6
M  ZZC   9 n2
M  ZZC  10 c7
M  ZZC  11 o2
M  ZZC  12 c8
M  ZZC  13 n3
M  ZZC  14 c9
M  ZZC  15 o3
M  ZZC  16 c10
M  ZZC  17 c11
M  ZZC  18 c12
M  ZZC  19 c13
M  ZZC  20 c14
M  ZZC  21 o4
M  ZZC  22 n4
M  ZZC  23 c15
M  ZZC  24 c16
M  ZZC  25 c17
M  ZZC  26 c18
M  ZZC  27 c19
M  ZZC  28 o5
M  ZZC  29 c20
M  ZZC  30 c21
M  ZZC  31 c22
M  ZZC  32 c23
M  ZZC  33 c24
M  ZZC  34 c25
M  ZZC  35 c26
M  ZZC  36 c27
M  ZZC  37 n5
M  ZZC  38 c28
M  ZZC  39 s1
M  ZZC  40 c29
M  ZZC  41 c30
M  ZZC  42 c31
M  ZZC  43 c32
M  ZZC  44 h11
M  ZZC  45 h12
M  ZZC  46 h21
M  ZZC  47 h22
M  ZZC  48 h31
M  ZZC  49 h32
M  ZZC  50 h51
M  ZZC  51 h52
M  ZZC  52 h61
M  ZZC  53 h01
M  ZZC  54 h81
M  ZZC  55 h101
M  ZZC  56 h111
M  ZZC  57 h121
M  ZZC  58 h122
M  ZZC  59 h123
M  ZZC  60 h131
M  ZZC  61 h132
M  ZZC  62 h133
M  ZZC  63 h161
M  ZZC  64 h162
M  ZZC  65 h163
M  ZZC  66 h171
M  ZZC  67 h181
M  ZZC  68 h182
M  ZZC  69 h191
M  ZZC  70 h02
M  ZZC  71 h201
M  ZZC  72 h202
M  ZZC  73 h221
M  ZZC  74 h231
M  ZZC  75 h271
M  ZZC  76 h272
M  ZZC  77 h273
M  ZZC  78 h281
M  ZZC  79 h291
M  ZZC  80 h301
M  ZZC  81 h311
M  ZZC  82 h312
M  ZZC  83 h321
M  ZZC  84 h322
M  ZZM   1 1
M  ZZI   1 112
M  ZZM   2 1
M  ZZI   2 112
M  ZZM   3 1
M  ZZI   3 112
M  ZZM   4 10
M  ZZI   4 192
M  ZZM   5 3
M  ZZI   5 121
M  ZZM   6 7
M  ZZI   6 81
M  ZZM   7 1
M  ZZI   7 112
M  ZZM   8 1
M  ZZI   8 113
M  ZZM   9 10
M  ZZI   9 211
M  ZZM  10 3
M  ZZI  10 121
M  ZZM  11 7
M  ZZI  11 81
M  ZZM  12 1
M  ZZI  12 113
M  ZZM  13 10
M  ZZI  13 192
M  ZZM  14 3
M  ZZI  14 121
M  ZZM  15 7
M  ZZI  15 81
M  ZZM  16 1
M  ZZI  16 113
M  ZZM  17 1
M  ZZI  17 113
M  ZZM  18 1
M  ZZI  18 111
M  ZZM  19 1
M  ZZI  19 111
M  ZZM  20 63
M  ZZI  20 104
M  ZZM  21 59
M  ZZI  21 56
M  ZZM  22 65
M  ZZI  22 207
M  ZZM  23 64
M  ZZI  23 105
M  ZZM  24 1
M  ZZI  24 111
M  ZZM  25 64
M  ZZI  25 105
M  ZZM  26 1
M  ZZI  26 112
M  ZZM  27 1
M  ZZI  27 113
M  ZZM  28 6
M  ZZI  28 60
M  ZZM  29 1
M  ZZI  29 112
M  ZZM  30 37
M  ZZI  30 124
M  ZZM  31 37
M  ZZI  31 125
M  ZZM  32 37
M  ZZI  32 125
M  ZZM  33 37
M  ZZI  33 124
M  ZZM  34 63
M  ZZI  34 104
M  ZZM  35 64
M  ZZI  35 105
M  ZZM  36 1
M  ZZI  36 111
M  ZZM  37 66
M  ZZI  37 222
M  ZZM  38 63
M  ZZI  38 104
M  ZZM  39 44
M  ZZI  39 248
M  ZZM  40 37
M  ZZI  40 125
M  ZZM  41 37
M  ZZI  41 125
M  ZZM  42 1
M  ZZI  42 112
M  ZZM  43 1
M  ZZI  43 112
M  ZZM  44 5
M  ZZI  44 1
M  ZZM  45 5
M  ZZI  45 1
M  ZZM  46 5
M  ZZI  46 1
M  ZZM  47 5
M  ZZI  47 1
M  ZZM  48 5
M  ZZI  48 1
M  ZZM  49 5
M  ZZI  49 1
M  ZZM  50 5
M  ZZI  50 1
M  ZZM  51 5
M  ZZI  51 1
M  ZZM  52 5
M  ZZI  52 1
M  ZZM  53 28
M  ZZI  53 11
M  ZZM  54 5
M  ZZI  54 1
M  ZZM  55 5
M  ZZI  55 1
M  ZZM  56 5
M  ZZI  56 1
M  ZZM  57 5
M  ZZI  57 1
M  ZZM  58 5
M  ZZI  58 1
M  ZZM  59 5
M  ZZI  59 1
M  ZZM  60 5
M  ZZI  60 1
M  ZZM  61 5
M  ZZI  61 1
M  ZZM  62 5
M  ZZI  62 1
M  ZZM  63 5
M  ZZI  63 1
M  ZZM  64 5
M  ZZI  64 1
M  ZZM  65 5
M  ZZI  65 1
M  ZZM  66 5
M  ZZI  66 1
M  ZZM  67 5
M  ZZI  67 1
M  ZZM  68 5
M  ZZI  68 1
M  ZZM  69 5
M  ZZI  69 1
M  ZZM  70 21
M  ZZI  70 20
M  ZZM  71 5
M  ZZI  71 1
M  ZZM  72 5
M  ZZI  72 1
M  ZZM  73 5
M  ZZI  73 1
M  ZZM  74 5
M  ZZI  74 1
M  ZZM  75 5
M  ZZI  75 1
M  ZZM  76 5
M  ZZI  76 1
M  ZZM  77 5
M  ZZI  77 1
M  ZZM  78 5
M  ZZI  78 1
M  ZZM  79 5
M  ZZI  79 1
M  ZZM  80 5
M  ZZI  80 1
M  ZZM  81 5
M  ZZI  81 1
M  ZZM  82 5
M  ZZI  82 1
M  ZZM  83 5
M  ZZI  83 1
M  ZZM  84 5
M  ZZI  84 1
M  END
> <IX>
1

> <NAME>
VHL_5T8E_16.pdb

> <Score>
-0.609675

> <Natom>
84

> <Nflex>
11

> <Hbond>
-3.431699

> <Hphob>
-7.971391

> <VwInt>
-24.380355

> <Dsolv>
20.143619

> <SolEl>
19.058816

> <Eintl>
5.845297

> <RecConf>
ND

> <projPath>
VHL_maps/

> <NAME_>
VHL_5T8E_16.pdb

$$$$
