VHL_5LLI_1.pdb
  MOLSOFT 04032206403D

 65 67  0  0  1  0  0  0  0  0999 V2000
   13.2953   -1.8929   -6.8472 O   0  0  0  0  0  0  0  0  0  0  0  0
   13.0218   -0.8034   -6.3726 C   0  0  0  0  0  0  0  0  0  0  0  0
   13.8683   -0.0769   -5.5682 N   0  0  0  0  0  0  0  0  0  0  0  0
   15.1937   -0.5659   -5.1832 C   0  0  1  0  0  0  0  0  0  0  0  0
   16.2407    0.5871   -5.1600 C   0  0  0  0  0  0  0  0  0  0  0  0
   15.8872    1.7005   -4.1569 C   0  0  0  0  0  0  0  0  0  0  0  0
   16.3372    1.2093   -6.5655 C   0  0  0  0  0  0  0  0  0  0  0  0
   17.6256    0.0413   -4.7982 C   0  0  0  0  0  0  0  0  0  0  0  0
   14.9843   -1.2848   -3.8350 C   0  0  0  0  0  0  0  0  0  0  0  0
   14.3235   -0.7663   -2.9431 O   0  0  0  0  0  0  0  0  0  0  0  0
   15.5491   -2.5531   -3.6687 N   0  0  0  0  0  0  0  0  0  0  0  0
   15.2878   -3.3259   -2.4629 C   0  0  2  0  0  0  0  0  0  0  0  0
   16.2458   -2.9364   -1.3320 C   0  0  0  0  0  0  0  0  0  0  0  0
   17.3867   -2.5427   -1.5327 O   0  0  0  0  0  0  0  0  0  0  0  0
   15.7182   -3.1235   -0.0669 N   0  0  0  0  0  0  0  0  0  0  0  0
   16.4600   -2.7570    1.1254 C   0  0  0  0  0  0  0  0  0  0  0  0
   15.9843   -3.4990    2.3476 C   0  0  0  0  0  0  0  0  0  0  0  0
   14.8020   -3.1450    2.9910 C   0  0  0  0  0  0  0  0  0  0  0  0
   14.3539   -3.8564    4.0932 C   0  0  0  0  0  0  0  0  0  0  0  0
   15.0643   -4.9526    4.5785 C   0  0  0  0  0  0  0  0  0  0  0  0
   14.5702   -5.7385    5.7074 C   0  0  0  0  0  0  0  0  0  0  0  0
   13.3183   -6.2910    5.9666 C   0  0  0  0  0  0  0  0  0  0  0  0
   12.1089   -6.2501    5.1087 C   0  0  0  0  0  0  0  0  0  0  0  0
   13.2187   -6.9798    7.1598 N   0  0  0  0  0  0  0  0  0  0  0  0
   14.3703   -6.9505    7.7900 C   0  0  0  0  0  0  0  0  0  0  0  0
   15.6348   -6.1155    7.0087 S   0  0  0  0  0  0  0  0  0  0  0  0
   16.2569   -5.2893    3.9421 C   0  0  0  0  0  0  0  0  0  0  0  0
   16.7121   -4.5725    2.8492 C   0  0  0  0  0  0  0  0  0  0  0  0
   15.4995   -4.7656   -2.8944 C   0  0  0  0  0  0  0  0  0  0  0  0
   16.5763   -4.6794   -3.9648 C   0  0  1  0  0  0  0  0  0  0  0  0
   16.4368   -5.7401   -4.9130 O   0  0  0  0  0  0  0  0  0  0  0  0
   16.3680   -3.3099   -4.6062 C   0  0  0  0  0  0  0  0  0  0  0  0
   11.7033   -0.1284   -6.6001 C   0  0  0  0  0  0  0  0  0  0  0  0
   13.5066    0.7562   -5.1171 H   0  0  0  0  0  0  0  0  0  0  0  0
   15.4950   -1.2982   -5.9372 H   0  0  0  0  0  0  0  0  0  0  0  0
   14.9215    2.1660   -4.3750 H   0  0  0  0  0  0  0  0  0  0  0  0
   16.6343    2.5006   -4.1796 H   0  0  0  0  0  0  0  0  0  0  0  0
   15.8549    1.3291   -3.1286 H   0  0  0  0  0  0  0  0  0  0  0  0
   16.5754    0.4548   -7.3232 H   0  0  0  0  0  0  0  0  0  0  0  0
   17.1193    1.9742   -6.6123 H   0  0  0  0  0  0  0  0  0  0  0  0
   15.4016    1.6913   -6.8667 H   0  0  0  0  0  0  0  0  0  0  0  0
   17.9369   -0.7275   -5.5111 H   0  0  0  0  0  0  0  0  0  0  0  0
   17.6452   -0.3966   -3.7955 H   0  0  0  0  0  0  0  0  0  0  0  0
   18.3855    0.8295   -4.8194 H   0  0  0  0  0  0  0  0  0  0  0  0
   14.2567   -3.1582   -2.1302 H   0  0  0  0  0  0  0  0  0  0  0  0
   14.7552   -3.4225    0.0399 H   0  0  0  0  0  0  0  0  0  0  0  0
   17.5280   -2.9332    0.9557 H   0  0  0  0  0  0  0  0  0  0  0  0
   16.3405   -1.6782    1.2713 H   0  0  0  0  0  0  0  0  0  0  0  0
   14.2148   -2.3043    2.6320 H   0  0  0  0  0  0  0  0  0  0  0  0
   13.4347   -3.5388    4.5747 H   0  0  0  0  0  0  0  0  0  0  0  0
   11.2295   -6.6082    5.6516 H   0  0  0  0  0  0  0  0  0  0  0  0
   12.2380   -6.8918    4.2339 H   0  0  0  0  0  0  0  0  0  0  0  0
   11.8873   -5.2380    4.7637 H   0  0  0  0  0  0  0  0  0  0  0  0
   14.5178   -7.4288    8.7478 H   0  0  0  0  0  0  0  0  0  0  0  0
   16.8415   -6.1415    4.2764 H   0  0  0  0  0  0  0  0  0  0  0  0
   17.6408   -4.8773    2.3746 H   0  0  0  0  0  0  0  0  0  0  0  0
   15.7918   -5.4291   -2.0766 H   0  0  0  0  0  0  0  0  0  0  0  0
   14.5774   -5.1740   -3.3193 H   0  0  0  0  0  0  0  0  0  0  0  0
   17.5741   -4.7405   -3.5233 H   0  0  0  0  0  0  0  0  0  0  0  0
   16.3479   -6.5757   -4.4187 H   0  0  0  0  0  0  0  0  0  0  0  0
   15.8890   -3.3590   -5.5856 H   0  0  0  0  0  0  0  0  0  0  0  0
   17.3241   -2.7973   -4.7376 H   0  0  0  0  0  0  0  0  0  0  0  0
   11.1662   -0.0453   -5.6519 H   0  0  0  0  0  0  0  0  0  0  0  0
   11.1070   -0.7168   -7.3005 H   0  0  0  0  0  0  0  0  0  0  0  0
   11.8655    0.8680   -7.0168 H   0  0  0  0  0  0  0  0  0  0  0  0
  1  2  2  0  0  0  0
  2  3  1  0  0  0  0
  2 33  1  0  0  0  0
  4  3  1  0  0  0  0
  3 34  1  0  0  0  0
  4  5  1  0  0  0  0
  4 35  1  0  0  0  0
  4  9  1  0  0  0  0
  5  6  1  0  0  0  0
  5  7  1  0  0  0  0
  5  8  1  0  0  0  0
  6 36  1  0  0  0  0
  6 37  1  0  0  0  0
  6 38  1  0  0  0  0
  7 39  1  0  0  0  0
  7 40  1  0  0  0  0
  7 41  1  0  0  0  0
  8 42  1  0  0  0  0
  8 43  1  0  0  0  0
  8 44  1  0  0  0  0
  9 10  2  0  0  0  0
  9 11  1  0  0  0  0
 11 32  1  0  0  0  0
 12 11  1  0  0  0  0
 12 29  1  0  0  0  0
 12 45  1  0  0  0  0
 12 13  1  0  0  0  0
 13 14  2  0  0  0  0
 13 15  1  0  0  0  0
 15 46  1  0  0  0  0
 15 16  1  0  0  0  0
 16 47  1  0  0  0  0
 16 48  1  0  0  0  0
 16 17  1  0  0  0  0
 17 18  1  0  0  0  0
 17 28  2  0  0  0  0
 18 49  1  0  0  0  0
 18 19  2  0  0  0  0
 19 50  1  0  0  0  0
 19 20  1  0  0  0  0
 20 27  2  0  0  0  0
 20 21  1  0  0  0  0
 21 22  2  0  0  0  0
 21 26  1  0  0  0  0
 22 23  1  0  0  0  0
 22 24  1  0  0  0  0
 23 51  1  0  0  0  0
 23 52  1  0  0  0  0
 23 53  1  0  0  0  0
 24 25  2  0  0  0  0
 25 54  1  0  0  0  0
 25 26  1  0  0  0  0
 27 55  1  0  0  0  0
 27 28  1  0  0  0  0
 28 56  1  0  0  0  0
 30 29  1  0  0  0  0
 29 57  1  0  0  0  0
 29 58  1  0  0  0  0
 30 32  1  0  0  0  0
 30 59  1  0  0  0  0
 30 31  1  0  0  0  0
 31 60  1  0  0  0  0
 32 61  1  0  0  0  0
 32 62  1  0  0  0  0
 33 63  1  0  0  0  0
 33 64  1  0  0  0  0
 33 65  1  0  0  0  0
M  ZZC   1 o1
M  ZZC   2 c1
M  ZZC   3 n1
M  ZZC   4 c2
M  ZZC   5 c3
M  ZZC   6 c4
M  ZZC   7 c5
M  ZZC   8 c6
M  ZZC   9 c7
M  ZZC  10 o2
M  ZZC  11 n2
M  ZZC  12 c8
M  ZZC  13 c9
M  ZZC  14 o3
M  ZZC  15 n3
M  ZZC  16 c10
M  ZZC  17 c11
M  ZZC  18 c12
M  ZZC  19 c13
M  ZZC  20 c14
M  ZZC  21 c15
M  ZZC  22 c16
M  ZZC  23 c17
M  ZZC  24 n4
M  ZZC  25 c18
M  ZZC  26 s1
M  ZZC  27 c19
M  ZZC  28 c20
M  ZZC  29 c21
M  ZZC  30 c22
M  ZZC  31 o4
M  ZZC  32 c23
M  ZZC  33 c24
M  ZZC  34 h11
M  ZZC  35 h21
M  ZZC  36 h41
M  ZZC  37 h42
M  ZZC  38 h43
M  ZZC  39 h51
M  ZZC  40 h52
M  ZZC  41 h53
M  ZZC  42 h61
M  ZZC  43 h62
M  ZZC  44 h63
M  ZZC  45 h81
M  ZZC  46 h31
M  ZZC  47 h101
M  ZZC  48 h102
M  ZZC  49 h121
M  ZZC  50 h131
M  ZZC  51 h171
M  ZZC  52 h172
M  ZZC  53 h173
M  ZZC  54 h181
M  ZZC  55 h191
M  ZZC  56 h201
M  ZZC  57 h211
M  ZZC  58 h212
M  ZZC  59 h221
M  ZZC  60 h01
M  ZZC  61 h231
M  ZZC  62 h232
M  ZZC  63 h241
M  ZZC  64 h242
M  ZZC  65 h243
M  ZZM   1 7
M  ZZI   1 81
M  ZZM   2 3
M  ZZI   2 121
M  ZZM   3 10
M  ZZI   3 211
M  ZZM   4 1
M  ZZI   4 113
M  ZZM   5 1
M  ZZI   5 110
M  ZZM   6 1
M  ZZI   6 111
M  ZZM   7 1
M  ZZI   7 111
M  ZZM   8 1
M  ZZI   8 111
M  ZZM   9 3
M  ZZI   9 121
M  ZZM  10 7
M  ZZI  10 81
M  ZZM  11 10
M  ZZI  11 192
M  ZZM  12 1
M  ZZI  12 113
M  ZZM  13 3
M  ZZI  13 121
M  ZZM  14 7
M  ZZI  14 81
M  ZZM  15 10
M  ZZI  15 211
M  ZZM  16 1
M  ZZI  16 112
M  ZZM  17 37
M  ZZI  17 124
M  ZZM  18 37
M  ZZI  18 125
M  ZZM  19 37
M  ZZI  19 125
M  ZZM  20 37
M  ZZI  20 124
M  ZZM  21 63
M  ZZI  21 104
M  ZZM  22 64
M  ZZI  22 105
M  ZZM  23 1
M  ZZI  23 111
M  ZZM  24 66
M  ZZI  24 222
M  ZZM  25 63
M  ZZI  25 104
M  ZZM  26 44
M  ZZI  26 248
M  ZZM  27 37
M  ZZI  27 125
M  ZZM  28 37
M  ZZI  28 125
M  ZZM  29 1
M  ZZI  29 112
M  ZZM  30 1
M  ZZI  30 113
M  ZZM  31 6
M  ZZI  31 60
M  ZZM  32 1
M  ZZI  32 112
M  ZZM  33 1
M  ZZI  33 111
M  ZZM  34 28
M  ZZI  34 11
M  ZZM  35 5
M  ZZI  35 1
M  ZZM  36 5
M  ZZI  36 1
M  ZZM  37 5
M  ZZI  37 1
M  ZZM  38 5
M  ZZI  38 1
M  ZZM  39 5
M  ZZI  39 1
M  ZZM  40 5
M  ZZI  40 1
M  ZZM  41 5
M  ZZI  41 1
M  ZZM  42 5
M  ZZI  42 1
M  ZZM  43 5
M  ZZI  43 1
M  ZZM  44 5
M  ZZI  44 1
M  ZZM  45 5
M  ZZI  45 1
M  ZZM  46 28
M  ZZI  46 11
M  ZZM  47 5
M  ZZI  47 1
M  ZZM  48 5
M  ZZI  48 1
M  ZZM  49 5
M  ZZI  49 1
M  ZZM  50 5
M  ZZI  50 1
M  ZZM  51 5
M  ZZI  51 1
M  ZZM  52 5
M  ZZI  52 1
M  ZZM  53 5
M  ZZI  53 1
M  ZZM  54 5
M  ZZI  54 1
M  ZZM  55 5
M  ZZI  55 1
M  ZZM  56 5
M  ZZI  56 1
M  ZZM  57 5
M  ZZI  57 1
M  ZZM  58 5
M  ZZI  58 1
M  ZZM  59 5
M  ZZI  59 1
M  ZZM  60 21
M  ZZI  60 20
M  ZZM  61 5
M  ZZI  61 1
M  ZZM  62 5
M  ZZI  62 1
M  ZZM  63 5
M  ZZI  63 1
M  ZZM  64 5
M  ZZI  64 1
M  ZZM  65 5
M  ZZI  65 1
M  END
> <IX>
1

> <NAME>
VHL_5LLI_1.pdb

> <Score>
-15.044038

> <Natom>
65

> <Nflex>
8

> <Hbond>
-3.039825

> <Hphob>
-6.110888

> <VwInt>
-27.86155

> <Dsolv>
16.712176

> <SolEl>
9.113111

> <Eintl>
2.08963

> <RecConf>
ND

> <projPath>
VHL_maps/

> <NAME_>
VHL_5LLI_1.pdb

$$$$
