VHL_6W8L_4.pdb
  MOLSOFT 04032206423D

 65 67  0  0  1  0  0  0  0  0999 V2000
    2.8643    1.2632  -18.6663 C   0  0  0  0  0  0  0  0  0  0  0  0
    3.6761    0.2174  -17.9508 C   0  0  0  0  0  0  0  0  0  0  0  0
    3.1586   -0.7220  -17.3653 O   0  0  0  0  0  0  0  0  0  0  0  0
    5.0356    0.4383  -18.0422 N   0  0  0  0  0  0  0  0  0  0  0  0
    6.0345   -0.3820  -17.3478 C   0  0  2  0  0  0  0  0  0  0  0  0
    6.4133    0.2155  -15.9571 C   0  0  0  0  0  0  0  0  0  0  0  0
    7.7190   -0.3663  -15.3883 C   0  0  0  0  0  0  0  0  0  0  0  0
    6.5985    1.7316  -16.0717 C   0  0  0  0  0  0  0  0  0  0  0  0
    5.3011   -0.0789  -14.9376 C   0  0  0  0  0  0  0  0  0  0  0  0
    7.2583   -0.4661  -18.2768 C   0  0  0  0  0  0  0  0  0  0  0  0
    7.6817    0.5209  -18.8647 O   0  0  0  0  0  0  0  0  0  0  0  0
    7.8903   -1.7035  -18.3707 N   0  0  0  0  0  0  0  0  0  0  0  0
    9.1532   -1.8756  -19.0755 C   0  0  1  0  0  0  0  0  0  0  0  0
   10.3372   -1.5808  -18.1389 C   0  0  0  0  0  0  0  0  0  0  0  0
   10.3443   -1.8976  -16.9558 O   0  0  0  0  0  0  0  0  0  0  0  0
   11.4192   -0.9974  -18.7699 N   0  0  0  0  0  0  0  0  0  0  0  0
   12.6133   -0.6200  -18.0372 C   0  0  0  0  0  0  0  0  0  0  0  0
   13.5276   -1.7831  -17.7435 C   0  0  0  0  0  0  0  0  0  0  0  0
   14.0000   -1.9916  -16.4526 C   0  0  0  0  0  0  0  0  0  0  0  0
   14.8493   -3.0456  -16.1667 C   0  0  0  0  0  0  0  0  0  0  0  0
   15.2620   -3.9127  -17.1676 C   0  0  0  0  0  0  0  0  0  0  0  0
   16.1898   -4.9909  -16.8730 C   0  0  0  0  0  0  0  0  0  0  0  0
   17.5704   -4.9675  -16.7478 C   0  0  0  0  0  0  0  0  0  0  0  0
   18.4479   -3.7835  -16.8812 C   0  0  0  0  0  0  0  0  0  0  0  0
   18.1535   -6.1896  -16.4778 N   0  0  0  0  0  0  0  0  0  0  0  0
   17.2218   -7.1122  -16.3850 C   0  0  0  0  0  0  0  0  0  0  0  0
   15.6124   -6.5887  -16.6195 S   0  0  0  0  0  0  0  0  0  0  0  0
   14.8009   -3.7055  -18.4618 C   0  0  0  0  0  0  0  0  0  0  0  0
   13.9466   -2.6526  -18.7467 C   0  0  0  0  0  0  0  0  0  0  0  0
    9.1429   -3.3423  -19.4794 C   0  0  0  0  0  0  0  0  0  0  0  0
    8.4081   -4.0068  -18.3274 C   0  0  2  0  0  0  0  0  0  0  0  0
    7.8349   -5.2475  -18.7297 O   0  0  0  0  0  0  0  0  0  0  0  0
    7.3483   -2.9819  -17.9525 C   0  0  0  0  0  0  0  0  0  0  0  0
    3.2179    2.2626  -18.3945 H   0  0  0  0  0  0  0  0  0  0  0  0
    1.8128    1.1799  -18.3756 H   0  0  0  0  0  0  0  0  0  0  0  0
    2.9536    1.1251  -19.7479 H   0  0  0  0  0  0  0  0  0  0  0  0
    5.3689    1.2291  -18.5861 H   0  0  0  0  0  0  0  0  0  0  0  0
    5.5994   -1.3757  -17.2135 H   0  0  0  0  0  0  0  0  0  0  0  0
    7.9187    0.0121  -14.3800 H   0  0  0  0  0  0  0  0  0  0  0  0
    8.5877   -0.0949  -15.9941 H   0  0  0  0  0  0  0  0  0  0  0  0
    7.6792   -1.4544  -15.3131 H   0  0  0  0  0  0  0  0  0  0  0  0
    7.0290    2.1436  -15.1598 H   0  0  0  0  0  0  0  0  0  0  0  0
    5.6540    2.2493  -16.2607 H   0  0  0  0  0  0  0  0  0  0  0  0
    7.2819    1.9967  -16.8780 H   0  0  0  0  0  0  0  0  0  0  0  0
    4.3594    0.4028  -15.2085 H   0  0  0  0  0  0  0  0  0  0  0  0
    5.5645    0.2769  -13.9364 H   0  0  0  0  0  0  0  0  0  0  0  0
    5.1098   -1.1532  -14.8564 H   0  0  0  0  0  0  0  0  0  0  0  0
    9.1973   -1.2126  -19.9472 H   0  0  0  0  0  0  0  0  0  0  0  0
   11.3745   -0.7742  -19.7577 H   0  0  0  0  0  0  0  0  0  0  0  0
   13.1482    0.1285  -18.6306 H   0  0  0  0  0  0  0  0  0  0  0  0
   12.2960   -0.1384  -17.1059 H   0  0  0  0  0  0  0  0  0  0  0  0
   13.6993   -1.3298  -15.6458 H   0  0  0  0  0  0  0  0  0  0  0  0
   15.1863   -3.1890  -15.1461 H   0  0  0  0  0  0  0  0  0  0  0  0
   19.5001   -4.0625  -16.7892 H   0  0  0  0  0  0  0  0  0  0  0  0
   18.2286   -3.0544  -16.0975 H   0  0  0  0  0  0  0  0  0  0  0  0
   18.3120   -3.3002  -17.8527 H   0  0  0  0  0  0  0  0  0  0  0  0
   17.4538   -8.1462  -16.1720 H   0  0  0  0  0  0  0  0  0  0  0  0
   15.1123   -4.3661  -19.2655 H   0  0  0  0  0  0  0  0  0  0  0  0
   13.6065   -2.5144  -19.7684 H   0  0  0  0  0  0  0  0  0  0  0  0
    8.5816   -3.4825  -20.4107 H   0  0  0  0  0  0  0  0  0  0  0  0
   10.1387   -3.7661  -19.6430 H   0  0  0  0  0  0  0  0  0  0  0  0
    9.0872   -4.1886  -17.4887 H   0  0  0  0  0  0  0  0  0  0  0  0
    7.3553   -5.5945  -17.9555 H   0  0  0  0  0  0  0  0  0  0  0  0
    7.1459   -2.9803  -16.8789 H   0  0  0  0  0  0  0  0  0  0  0  0
    6.4003   -3.1561  -18.4742 H   0  0  0  0  0  0  0  0  0  0  0  0
  1 34  1  0  0  0  0
  1 35  1  0  0  0  0
  1 36  1  0  0  0  0
  1  2  1  0  0  0  0
  2  3  2  0  0  0  0
  2  4  1  0  0  0  0
  4 37  1  0  0  0  0
  5  4  1  0  0  0  0
  5 38  1  0  0  0  0
  5  6  1  0  0  0  0
  5 10  1  0  0  0  0
  6  7  1  0  0  0  0
  6  8  1  0  0  0  0
  6  9  1  0  0  0  0
  7 39  1  0  0  0  0
  7 40  1  0  0  0  0
  7 41  1  0  0  0  0
  8 42  1  0  0  0  0
  8 43  1  0  0  0  0
  8 44  1  0  0  0  0
  9 45  1  0  0  0  0
  9 46  1  0  0  0  0
  9 47  1  0  0  0  0
 10 11  2  0  0  0  0
 10 12  1  0  0  0  0
 12 33  1  0  0  0  0
 13 12  1  0  0  0  0
 13 30  1  0  0  0  0
 13 48  1  0  0  0  0
 13 14  1  0  0  0  0
 14 15  2  0  0  0  0
 14 16  1  0  0  0  0
 16 49  1  0  0  0  0
 16 17  1  0  0  0  0
 17 50  1  0  0  0  0
 17 51  1  0  0  0  0
 17 18  1  0  0  0  0
 18 19  1  0  0  0  0
 18 29  2  0  0  0  0
 19 52  1  0  0  0  0
 19 20  2  0  0  0  0
 20 53  1  0  0  0  0
 20 21  1  0  0  0  0
 21 28  2  0  0  0  0
 21 22  1  0  0  0  0
 22 23  2  0  0  0  0
 22 27  1  0  0  0  0
 23 24  1  0  0  0  0
 23 25  1  0  0  0  0
 24 54  1  0  0  0  0
 24 55  1  0  0  0  0
 24 56  1  0  0  0  0
 25 26  2  0  0  0  0
 26 57  1  0  0  0  0
 26 27  1  0  0  0  0
 28 58  1  0  0  0  0
 28 29  1  0  0  0  0
 29 59  1  0  0  0  0
 31 30  1  0  0  0  0
 30 60  1  0  0  0  0
 30 61  1  0  0  0  0
 31 33  1  0  0  0  0
 31 62  1  0  0  0  0
 31 32  1  0  0  0  0
 32 63  1  0  0  0  0
 33 64  1  0  0  0  0
 33 65  1  0  0  0  0
M  ZZC   1 c1
M  ZZC   2 c2
M  ZZC   3 o1
M  ZZC   4 n1
M  ZZC   5 c3
M  ZZC   6 c4
M  ZZC   7 c5
M  ZZC   8 c6
M  ZZC   9 c7
M  ZZC  10 c8
M  ZZC  11 o2
M  ZZC  12 n2
M  ZZC  13 c9
M  ZZC  14 c10
M  ZZC  15 o3
M  ZZC  16 n3
M  ZZC  17 c11
M  ZZC  18 c12
M  ZZC  19 c13
M  ZZC  20 c14
M  ZZC  21 c15
M  ZZC  22 c16
M  ZZC  23 c17
M  ZZC  24 c18
M  ZZC  25 n4
M  ZZC  26 c19
M  ZZC  27 s1
M  ZZC  28 c20
M  ZZC  29 c21
M  ZZC  30 c22
M  ZZC  31 c23
M  ZZC  32 o4
M  ZZC  33 c24
M  ZZC  34 h11
M  ZZC  35 h12
M  ZZC  36 h13
M  ZZC  37 h01
M  ZZC  38 h31
M  ZZC  39 h51
M  ZZC  40 h52
M  ZZC  41 h53
M  ZZC  42 h61
M  ZZC  43 h62
M  ZZC  44 h63
M  ZZC  45 h71
M  ZZC  46 h72
M  ZZC  47 h73
M  ZZC  48 h91
M  ZZC  49 h02
M  ZZC  50 h111
M  ZZC  51 h112
M  ZZC  52 h131
M  ZZC  53 h141
M  ZZC  54 h181
M  ZZC  55 h182
M  ZZC  56 h183
M  ZZC  57 h191
M  ZZC  58 h201
M  ZZC  59 h211
M  ZZC  60 h221
M  ZZC  61 h222
M  ZZC  62 h231
M  ZZC  63 h41
M  ZZC  64 h241
M  ZZC  65 h242
M  ZZM   1 1
M  ZZI   1 111
M  ZZM   2 3
M  ZZI   2 121
M  ZZM   3 7
M  ZZI   3 81
M  ZZM   4 10
M  ZZI   4 211
M  ZZM   5 1
M  ZZI   5 113
M  ZZM   6 1
M  ZZI   6 110
M  ZZM   7 1
M  ZZI   7 111
M  ZZM   8 1
M  ZZI   8 111
M  ZZM   9 1
M  ZZI   9 111
M  ZZM  10 3
M  ZZI  10 121
M  ZZM  11 7
M  ZZI  11 81
M  ZZM  12 10
M  ZZI  12 192
M  ZZM  13 1
M  ZZI  13 113
M  ZZM  14 3
M  ZZI  14 121
M  ZZM  15 7
M  ZZI  15 81
M  ZZM  16 10
M  ZZI  16 211
M  ZZM  17 1
M  ZZI  17 112
M  ZZM  18 37
M  ZZI  18 124
M  ZZM  19 37
M  ZZI  19 125
M  ZZM  20 37
M  ZZI  20 125
M  ZZM  21 37
M  ZZI  21 124
M  ZZM  22 63
M  ZZI  22 104
M  ZZM  23 64
M  ZZI  23 105
M  ZZM  24 1
M  ZZI  24 111
M  ZZM  25 66
M  ZZI  25 222
M  ZZM  26 63
M  ZZI  26 104
M  ZZM  27 44
M  ZZI  27 248
M  ZZM  28 37
M  ZZI  28 125
M  ZZM  29 37
M  ZZI  29 125
M  ZZM  30 1
M  ZZI  30 112
M  ZZM  31 1
M  ZZI  31 113
M  ZZM  32 6
M  ZZI  32 60
M  ZZM  33 1
M  ZZI  33 112
M  ZZM  34 5
M  ZZI  34 1
M  ZZM  35 5
M  ZZI  35 1
M  ZZM  36 5
M  ZZI  36 1
M  ZZM  37 28
M  ZZI  37 11
M  ZZM  38 5
M  ZZI  38 1
M  ZZM  39 5
M  ZZI  39 1
M  ZZM  40 5
M  ZZI  40 1
M  ZZM  41 5
M  ZZI  41 1
M  ZZM  42 5
M  ZZI  42 1
M  ZZM  43 5
M  ZZI  43 1
M  ZZM  44 5
M  ZZI  44 1
M  ZZM  45 5
M  ZZI  45 1
M  ZZM  46 5
M  ZZI  46 1
M  ZZM  47 5
M  ZZI  47 1
M  ZZM  48 5
M  ZZI  48 1
M  ZZM  49 28
M  ZZI  49 11
M  ZZM  50 5
M  ZZI  50 1
M  ZZM  51 5
M  ZZI  51 1
M  ZZM  52 5
M  ZZI  52 1
M  ZZM  53 5
M  ZZI  53 1
M  ZZM  54 5
M  ZZI  54 1
M  ZZM  55 5
M  ZZI  55 1
M  ZZM  56 5
M  ZZI  56 1
M  ZZM  57 5
M  ZZI  57 1
M  ZZM  58 5
M  ZZI  58 1
M  ZZM  59 5
M  ZZI  59 1
M  ZZM  60 5
M  ZZI  60 1
M  ZZM  61 5
M  ZZI  61 1
M  ZZM  62 5
M  ZZI  62 1
M  ZZM  63 21
M  ZZI  63 20
M  ZZM  64 5
M  ZZI  64 1
M  ZZM  65 5
M  ZZI  65 1
M  END
> <IX>
1

> <NAME>
VHL_6W8L_4.pdb

> <Score>
-10.955892

> <Natom>
65

> <Nflex>
8

> <Hbond>
-1.592474

> <Hphob>
-7.469607

> <VwInt>
-24.190472

> <Dsolv>
13.938142

> <SolEl>
6.828309

> <Eintl>
4.179806

> <RecConf>
ND

> <projPath>
VHL_maps/

> <NAME_>
VHL_6W8L_4.pdb

$$$$
