VHL_4IM0_23.pdb
  MOLSOFT 04032206383D

 65 67  0  0  1  0  0  0  0  0999 V2000
   15.3405   -5.3126   -3.3210 O   0  0  0  0  0  0  0  0  0  0  0  0
   16.4479   -5.1141   -3.7962 C   0  0  0  0  0  0  0  0  0  0  0  0
   17.0410   -3.8721   -3.8731 N   0  0  0  0  0  0  0  0  0  0  0  0
   16.3067   -2.6420   -3.5638 C   0  0  1  0  0  0  0  0  0  0  0  0
   16.5845   -2.0691   -2.1407 C   0  0  0  0  0  0  0  0  0  0  0  0
   18.0213   -1.5495   -1.9823 C   0  0  0  0  0  0  0  0  0  0  0  0
   16.3414   -3.1489   -1.0725 C   0  0  0  0  0  0  0  0  0  0  0  0
   15.6178   -0.9094   -1.8533 C   0  0  0  0  0  0  0  0  0  0  0  0
   16.6654   -1.6795   -4.7139 C   0  0  0  0  0  0  0  0  0  0  0  0
   17.8350   -1.4442   -4.9950 O   0  0  0  0  0  0  0  0  0  0  0  0
   15.6074   -1.1392   -5.4443 N   0  0  0  0  0  0  0  0  0  0  0  0
   15.8451   -0.3656   -6.6545 C   0  0  2  0  0  0  0  0  0  0  0  0
   16.1826    1.0908   -6.3237 C   0  0  0  0  0  0  0  0  0  0  0  0
   15.4999    1.7780   -5.5758 O   0  0  0  0  0  0  0  0  0  0  0  0
   17.3206    1.5518   -6.9568 N   0  0  0  0  0  0  0  0  0  0  0  0
   17.8069    2.9047   -6.7429 C   0  0  0  0  0  0  0  0  0  0  0  0
   19.2401    3.1265   -7.1650 C   0  0  0  0  0  0  0  0  0  0  0  0
   19.6826    4.4033   -7.5044 C   0  0  0  0  0  0  0  0  0  0  0  0
   21.0078    4.6389   -7.8414 C   0  0  0  0  0  0  0  0  0  0  0  0
   21.9285    3.5993   -7.8471 C   0  0  0  0  0  0  0  0  0  0  0  0
   23.3265    3.8194   -8.1800 C   0  0  0  0  0  0  0  0  0  0  0  0
   24.3910    4.2087   -7.3801 C   0  0  0  0  0  0  0  0  0  0  0  0
   24.3420    4.5460   -5.9395 C   0  0  0  0  0  0  0  0  0  0  0  0
   25.6137    4.2580   -8.0191 N   0  0  0  0  0  0  0  0  0  0  0  0
   25.4647    3.9349   -9.2840 C   0  0  0  0  0  0  0  0  0  0  0  0
   23.8770    3.5620   -9.7870 S   0  0  0  0  0  0  0  0  0  0  0  0
   21.4900    2.3295   -7.5059 C   0  0  0  0  0  0  0  0  0  0  0  0
   20.1738    2.0967   -7.1619 C   0  0  0  0  0  0  0  0  0  0  0  0
   14.5339   -0.4630   -7.4143 C   0  0  0  0  0  0  0  0  0  0  0  0
   13.4766   -0.5911   -6.3279 C   0  0  1  0  0  0  0  0  0  0  0  0
   12.3432   -1.3211   -6.7963 O   0  0  0  0  0  0  0  0  0  0  0  0
   14.1887   -1.3699   -5.2341 C   0  0  0  0  0  0  0  0  0  0  0  0
   17.2811   -6.2259   -4.3797 C   0  0  0  0  0  0  0  0  0  0  0  0
   17.9883   -3.7956   -4.2328 H   0  0  0  0  0  0  0  0  0  0  0  0
   15.2462   -2.8987   -3.6178 H   0  0  0  0  0  0  0  0  0  0  0  0
   18.7528   -2.3040   -2.2753 H   0  0  0  0  0  0  0  0  0  0  0  0
   18.2359   -1.2763   -0.9444 H   0  0  0  0  0  0  0  0  0  0  0  0
   18.2046   -0.6554   -2.5854 H   0  0  0  0  0  0  0  0  0  0  0  0
   15.3326   -3.5681   -1.1477 H   0  0  0  0  0  0  0  0  0  0  0  0
   16.4454   -2.7421   -0.0614 H   0  0  0  0  0  0  0  0  0  0  0  0
   17.0548   -3.9742   -1.1555 H   0  0  0  0  0  0  0  0  0  0  0  0
   14.5739   -1.2367   -1.9037 H   0  0  0  0  0  0  0  0  0  0  0  0
   15.7438   -0.0878   -2.5652 H   0  0  0  0  0  0  0  0  0  0  0  0
   15.7774   -0.4946   -0.8527 H   0  0  0  0  0  0  0  0  0  0  0  0
   16.6643   -0.8160   -7.2268 H   0  0  0  0  0  0  0  0  0  0  0  0
   17.8336    0.9284   -7.5742 H   0  0  0  0  0  0  0  0  0  0  0  0
   17.1415    3.5656   -7.3093 H   0  0  0  0  0  0  0  0  0  0  0  0
   17.6988    3.1526   -5.6814 H   0  0  0  0  0  0  0  0  0  0  0  0
   18.9876    5.2381   -7.5032 H   0  0  0  0  0  0  0  0  0  0  0  0
   21.3188    5.6464   -8.1014 H   0  0  0  0  0  0  0  0  0  0  0  0
   25.3146    4.8992   -5.5846 H   0  0  0  0  0  0  0  0  0  0  0  0
   24.0715    3.6691   -5.3471 H   0  0  0  0  0  0  0  0  0  0  0  0
   23.6083    5.3339   -5.7468 H   0  0  0  0  0  0  0  0  0  0  0  0
   26.2946    3.9077   -9.9755 H   0  0  0  0  0  0  0  0  0  0  0  0
   22.1787    1.4937   -7.5120 H   0  0  0  0  0  0  0  0  0  0  0  0
   19.8858    1.0871   -6.8912 H   0  0  0  0  0  0  0  0  0  0  0  0
   14.3443    0.3883   -8.0767 H   0  0  0  0  0  0  0  0  0  0  0  0
   14.5423   -1.3663   -8.0329 H   0  0  0  0  0  0  0  0  0  0  0  0
   13.1484    0.3887   -5.9634 H   0  0  0  0  0  0  0  0  0  0  0  0
   11.8958   -0.7866   -7.4782 H   0  0  0  0  0  0  0  0  0  0  0  0
   13.9815   -2.4429   -5.2962 H   0  0  0  0  0  0  0  0  0  0  0  0
   13.8956   -1.0272   -4.2379 H   0  0  0  0  0  0  0  0  0  0  0  0
   16.7415   -6.6710   -5.2213 H   0  0  0  0  0  0  0  0  0  0  0  0
   17.4556   -6.9886   -3.6178 H   0  0  0  0  0  0  0  0  0  0  0  0
   18.2486   -5.8646   -4.7404 H   0  0  0  0  0  0  0  0  0  0  0  0
  1  2  2  0  0  0  0
  2  3  1  0  0  0  0
  2 33  1  0  0  0  0
  4  3  1  0  0  0  0
  3 34  1  0  0  0  0
  4  5  1  0  0  0  0
  4 35  1  0  0  0  0
  4  9  1  0  0  0  0
  5  6  1  0  0  0  0
  5  7  1  0  0  0  0
  5  8  1  0  0  0  0
  6 36  1  0  0  0  0
  6 37  1  0  0  0  0
  6 38  1  0  0  0  0
  7 39  1  0  0  0  0
  7 40  1  0  0  0  0
  7 41  1  0  0  0  0
  8 42  1  0  0  0  0
  8 43  1  0  0  0  0
  8 44  1  0  0  0  0
  9 10  2  0  0  0  0
  9 11  1  0  0  0  0
 11 32  1  0  0  0  0
 12 11  1  0  0  0  0
 12 29  1  0  0  0  0
 12 45  1  0  0  0  0
 12 13  1  0  0  0  0
 13 14  2  0  0  0  0
 13 15  1  0  0  0  0
 15 46  1  0  0  0  0
 15 16  1  0  0  0  0
 16 47  1  0  0  0  0
 16 48  1  0  0  0  0
 16 17  1  0  0  0  0
 17 18  1  0  0  0  0
 17 28  2  0  0  0  0
 18 49  1  0  0  0  0
 18 19  2  0  0  0  0
 19 50  1  0  0  0  0
 19 20  1  0  0  0  0
 20 27  2  0  0  0  0
 20 21  1  0  0  0  0
 21 22  2  0  0  0  0
 21 26  1  0  0  0  0
 22 23  1  0  0  0  0
 22 24  1  0  0  0  0
 23 51  1  0  0  0  0
 23 52  1  0  0  0  0
 23 53  1  0  0  0  0
 24 25  2  0  0  0  0
 25 54  1  0  0  0  0
 25 26  1  0  0  0  0
 27 55  1  0  0  0  0
 27 28  1  0  0  0  0
 28 56  1  0  0  0  0
 30 29  1  0  0  0  0
 29 57  1  0  0  0  0
 29 58  1  0  0  0  0
 30 32  1  0  0  0  0
 30 59  1  0  0  0  0
 30 31  1  0  0  0  0
 31 60  1  0  0  0  0
 32 61  1  0  0  0  0
 32 62  1  0  0  0  0
 33 63  1  0  0  0  0
 33 64  1  0  0  0  0
 33 65  1  0  0  0  0
M  ZZC   1 o1
M  ZZC   2 c1
M  ZZC   3 n1
M  ZZC   4 c2
M  ZZC   5 c3
M  ZZC   6 c4
M  ZZC   7 c5
M  ZZC   8 c6
M  ZZC   9 c7
M  ZZC  10 o2
M  ZZC  11 n2
M  ZZC  12 c8
M  ZZC  13 c9
M  ZZC  14 o3
M  ZZC  15 n3
M  ZZC  16 c10
M  ZZC  17 c11
M  ZZC  18 c12
M  ZZC  19 c13
M  ZZC  20 c14
M  ZZC  21 c15
M  ZZC  22 c16
M  ZZC  23 c17
M  ZZC  24 n4
M  ZZC  25 c18
M  ZZC  26 s1
M  ZZC  27 c19
M  ZZC  28 c20
M  ZZC  29 c21
M  ZZC  30 c22
M  ZZC  31 o4
M  ZZC  32 c23
M  ZZC  33 c24
M  ZZC  34 h11
M  ZZC  35 h21
M  ZZC  36 h41
M  ZZC  37 h42
M  ZZC  38 h43
M  ZZC  39 h51
M  ZZC  40 h52
M  ZZC  41 h53
M  ZZC  42 h61
M  ZZC  43 h62
M  ZZC  44 h63
M  ZZC  45 h81
M  ZZC  46 h31
M  ZZC  47 h101
M  ZZC  48 h102
M  ZZC  49 h121
M  ZZC  50 h131
M  ZZC  51 h171
M  ZZC  52 h172
M  ZZC  53 h173
M  ZZC  54 h181
M  ZZC  55 h191
M  ZZC  56 h201
M  ZZC  57 h211
M  ZZC  58 h212
M  ZZC  59 h221
M  ZZC  60 h01
M  ZZC  61 h231
M  ZZC  62 h232
M  ZZC  63 h241
M  ZZC  64 h242
M  ZZC  65 h243
M  ZZM   1 7
M  ZZI   1 81
M  ZZM   2 3
M  ZZI   2 121
M  ZZM   3 10
M  ZZI   3 211
M  ZZM   4 1
M  ZZI   4 113
M  ZZM   5 1
M  ZZI   5 110
M  ZZM   6 1
M  ZZI   6 111
M  ZZM   7 1
M  ZZI   7 111
M  ZZM   8 1
M  ZZI   8 111
M  ZZM   9 3
M  ZZI   9 121
M  ZZM  10 7
M  ZZI  10 81
M  ZZM  11 10
M  ZZI  11 192
M  ZZM  12 1
M  ZZI  12 113
M  ZZM  13 3
M  ZZI  13 121
M  ZZM  14 7
M  ZZI  14 81
M  ZZM  15 10
M  ZZI  15 211
M  ZZM  16 1
M  ZZI  16 112
M  ZZM  17 37
M  ZZI  17 124
M  ZZM  18 37
M  ZZI  18 125
M  ZZM  19 37
M  ZZI  19 125
M  ZZM  20 37
M  ZZI  20 124
M  ZZM  21 63
M  ZZI  21 104
M  ZZM  22 64
M  ZZI  22 105
M  ZZM  23 1
M  ZZI  23 111
M  ZZM  24 66
M  ZZI  24 222
M  ZZM  25 63
M  ZZI  25 104
M  ZZM  26 44
M  ZZI  26 248
M  ZZM  27 37
M  ZZI  27 125
M  ZZM  28 37
M  ZZI  28 125
M  ZZM  29 1
M  ZZI  29 112
M  ZZM  30 1
M  ZZI  30 113
M  ZZM  31 6
M  ZZI  31 60
M  ZZM  32 1
M  ZZI  32 112
M  ZZM  33 1
M  ZZI  33 111
M  ZZM  34 28
M  ZZI  34 11
M  ZZM  35 5
M  ZZI  35 1
M  ZZM  36 5
M  ZZI  36 1
M  ZZM  37 5
M  ZZI  37 1
M  ZZM  38 5
M  ZZI  38 1
M  ZZM  39 5
M  ZZI  39 1
M  ZZM  40 5
M  ZZI  40 1
M  ZZM  41 5
M  ZZI  41 1
M  ZZM  42 5
M  ZZI  42 1
M  ZZM  43 5
M  ZZI  43 1
M  ZZM  44 5
M  ZZI  44 1
M  ZZM  45 5
M  ZZI  45 1
M  ZZM  46 28
M  ZZI  46 11
M  ZZM  47 5
M  ZZI  47 1
M  ZZM  48 5
M  ZZI  48 1
M  ZZM  49 5
M  ZZI  49 1
M  ZZM  50 5
M  ZZI  50 1
M  ZZM  51 5
M  ZZI  51 1
M  ZZM  52 5
M  ZZI  52 1
M  ZZM  53 5
M  ZZI  53 1
M  ZZM  54 5
M  ZZI  54 1
M  ZZM  55 5
M  ZZI  55 1
M  ZZM  56 5
M  ZZI  56 1
M  ZZM  57 5
M  ZZI  57 1
M  ZZM  58 5
M  ZZI  58 1
M  ZZM  59 5
M  ZZI  59 1
M  ZZM  60 21
M  ZZI  60 20
M  ZZM  61 5
M  ZZI  61 1
M  ZZM  62 5
M  ZZI  62 1
M  ZZM  63 5
M  ZZI  63 1
M  ZZM  64 5
M  ZZI  64 1
M  ZZM  65 5
M  ZZI  65 1
M  END
> <IX>
1

> <NAME>
VHL_4IM0_23.pdb

> <Score>
-16.179625

> <Natom>
65

> <Nflex>
8

> <Hbond>
-4.883644

> <Hphob>
-6.29785

> <VwInt>
-32.158876

> <Dsolv>
17.280923

> <SolEl>
18.243157

> <Eintl>
4.588756

> <RecConf>
ND

> <projPath>
VHL_maps/

> <NAME_>
VHL_4IM0_23.pdb

$$$$
