VHL_6W7F_1.pdb
  MOLSOFT 04032206433D

 65 67  0  0  1  0  0  0  0  0999 V2000
   18.0513   -7.0356   -5.1057 C   0  0  0  0  0  0  0  0  0  0  0  0
   16.9097   -6.0595   -5.0626 C   0  0  0  0  0  0  0  0  0  0  0  0
   15.8371   -6.3280   -5.5754 O   0  0  0  0  0  0  0  0  0  0  0  0
   17.1973   -4.9021   -4.3679 N   0  0  0  0  0  0  0  0  0  0  0  0
   16.2612   -3.7814   -4.1997 C   0  0  1  0  0  0  0  0  0  0  0  0
   15.8515   -3.5612   -2.7118 C   0  0  0  0  0  0  0  0  0  0  0  0
   15.3240   -4.8845   -2.1428 C   0  0  0  0  0  0  0  0  0  0  0  0
   17.0237   -3.0770   -1.8459 C   0  0  0  0  0  0  0  0  0  0  0  0
   14.7190   -2.5328   -2.5771 C   0  0  0  0  0  0  0  0  0  0  0  0
   16.9619   -2.5812   -4.8597 C   0  0  0  0  0  0  0  0  0  0  0  0
   18.1657   -2.4035   -4.7315 O   0  0  0  0  0  0  0  0  0  0  0  0
   16.1917   -1.6764   -5.5868 N   0  0  0  0  0  0  0  0  0  0  0  0
   16.8301   -0.5884   -6.3151 C   0  0  2  0  0  0  0  0  0  0  0  0
   17.3686    0.5028   -5.3921 C   0  0  0  0  0  0  0  0  0  0  0  0
   16.9264    0.7035   -4.2687 O   0  0  0  0  0  0  0  0  0  0  0  0
   18.3267    1.2935   -6.0035 N   0  0  0  0  0  0  0  0  0  0  0  0
   18.6912    2.5962   -5.4823 C   0  0  0  0  0  0  0  0  0  0  0  0
   17.6889    3.6041   -5.9775 C   0  0  0  0  0  0  0  0  0  0  0  0
   17.9246    4.3538   -7.1271 C   0  0  0  0  0  0  0  0  0  0  0  0
   16.9000    5.0827   -7.7098 C   0  0  0  0  0  0  0  0  0  0  0  0
   15.6213    5.0388   -7.1673 C   0  0  0  0  0  0  0  0  0  0  0  0
   14.4804    5.5945   -7.8618 C   0  0  0  0  0  0  0  0  0  0  0  0
   13.4471    4.9351   -8.5113 C   0  0  0  0  0  0  0  0  0  0  0  0
   13.3233    3.4742   -8.7357 C   0  0  0  0  0  0  0  0  0  0  0  0
   12.4349    5.7535   -8.9579 N   0  0  0  0  0  0  0  0  0  0  0  0
   12.7475    7.0048   -8.7016 C   0  0  0  0  0  0  0  0  0  0  0  0
   14.2305    7.2879   -7.9121 S   0  0  0  0  0  0  0  0  0  0  0  0
   15.4120    4.3770   -5.9680 C   0  0  0  0  0  0  0  0  0  0  0  0
   16.4409    3.6847   -5.3692 C   0  0  0  0  0  0  0  0  0  0  0  0
   15.7405   -0.0361   -7.2341 C   0  0  0  0  0  0  0  0  0  0  0  0
   14.4609   -0.3962   -6.5020 C   0  0  1  0  0  0  0  0  0  0  0  0
   13.3469   -0.4477   -7.3889 O   0  0  0  0  0  0  0  0  0  0  0  0
   14.7965   -1.7662   -5.9480 C   0  0  0  0  0  0  0  0  0  0  0  0
   19.0074   -6.5146   -5.2159 H   0  0  0  0  0  0  0  0  0  0  0  0
   17.9230   -7.7069   -5.9598 H   0  0  0  0  0  0  0  0  0  0  0  0
   18.0500   -7.6223   -4.1844 H   0  0  0  0  0  0  0  0  0  0  0  0
   18.1494   -4.7708   -4.0437 H   0  0  0  0  0  0  0  0  0  0  0  0
   15.3618   -4.0222   -4.7602 H   0  0  0  0  0  0  0  0  0  0  0  0
   14.9914   -4.7647   -1.1087 H   0  0  0  0  0  0  0  0  0  0  0  0
   16.0888   -5.6635   -2.1509 H   0  0  0  0  0  0  0  0  0  0  0  0
   14.4723   -5.2585   -2.7197 H   0  0  0  0  0  0  0  0  0  0  0  0
   16.7379   -3.0041   -0.7915 H   0  0  0  0  0  0  0  0  0  0  0  0
   17.3755   -2.0867   -2.1512 H   0  0  0  0  0  0  0  0  0  0  0  0
   17.8718   -3.7575   -1.8992 H   0  0  0  0  0  0  0  0  0  0  0  0
   15.0213   -1.5534   -2.9626 H   0  0  0  0  0  0  0  0  0  0  0  0
   14.4372   -2.3846   -1.5303 H   0  0  0  0  0  0  0  0  0  0  0  0
   13.8266   -2.8293   -3.1356 H   0  0  0  0  0  0  0  0  0  0  0  0
   17.6582   -0.9892   -6.8967 H   0  0  0  0  0  0  0  0  0  0  0  0
   18.6900    1.0214   -6.9123 H   0  0  0  0  0  0  0  0  0  0  0  0
   18.7100    2.5704   -4.3871 H   0  0  0  0  0  0  0  0  0  0  0  0
   19.7013    2.8322   -5.8329 H   0  0  0  0  0  0  0  0  0  0  0  0
   18.8968    4.3293   -7.6106 H   0  0  0  0  0  0  0  0  0  0  0  0
   17.0909    5.6367   -8.6246 H   0  0  0  0  0  0  0  0  0  0  0  0
   12.4296    3.2480   -9.3240 H   0  0  0  0  0  0  0  0  0  0  0  0
   13.2360    2.9336   -7.7893 H   0  0  0  0  0  0  0  0  0  0  0  0
   14.1940    3.0814   -9.2674 H   0  0  0  0  0  0  0  0  0  0  0  0
   12.1064    7.8276   -8.9624 H   0  0  0  0  0  0  0  0  0  0  0  0
   14.4250    4.3565   -5.5133 H   0  0  0  0  0  0  0  0  0  0  0  0
   16.2345    3.1356   -4.4554 H   0  0  0  0  0  0  0  0  0  0  0  0
   15.8139    1.0390   -7.4286 H   0  0  0  0  0  0  0  0  0  0  0  0
   15.7697   -0.5351   -8.2103 H   0  0  0  0  0  0  0  0  0  0  0  0
   14.2595    0.3265   -5.7018 H   0  0  0  0  0  0  0  0  0  0  0  0
   12.5377   -0.3491   -6.8566 H   0  0  0  0  0  0  0  0  0  0  0  0
   14.7192   -2.5261   -6.7295 H   0  0  0  0  0  0  0  0  0  0  0  0
   14.1516   -2.0624   -5.1218 H   0  0  0  0  0  0  0  0  0  0  0  0
  1 34  1  0  0  0  0
  1 35  1  0  0  0  0
  1 36  1  0  0  0  0
  1  2  1  0  0  0  0
  2  3  2  0  0  0  0
  2  4  1  0  0  0  0
  4 37  1  0  0  0  0
  5  4  1  0  0  0  0
  5 38  1  0  0  0  0
  5  6  1  0  0  0  0
  5 10  1  0  0  0  0
  6  7  1  0  0  0  0
  6  8  1  0  0  0  0
  6  9  1  0  0  0  0
  7 39  1  0  0  0  0
  7 40  1  0  0  0  0
  7 41  1  0  0  0  0
  8 42  1  0  0  0  0
  8 43  1  0  0  0  0
  8 44  1  0  0  0  0
  9 45  1  0  0  0  0
  9 46  1  0  0  0  0
  9 47  1  0  0  0  0
 10 11  2  0  0  0  0
 10 12  1  0  0  0  0
 12 33  1  0  0  0  0
 13 12  1  0  0  0  0
 13 30  1  0  0  0  0
 13 48  1  0  0  0  0
 13 14  1  0  0  0  0
 14 15  2  0  0  0  0
 14 16  1  0  0  0  0
 16 49  1  0  0  0  0
 16 17  1  0  0  0  0
 17 50  1  0  0  0  0
 17 51  1  0  0  0  0
 17 18  1  0  0  0  0
 18 19  1  0  0  0  0
 18 29  2  0  0  0  0
 19 52  1  0  0  0  0
 19 20  2  0  0  0  0
 20 53  1  0  0  0  0
 20 21  1  0  0  0  0
 21 28  2  0  0  0  0
 21 22  1  0  0  0  0
 22 23  2  0  0  0  0
 22 27  1  0  0  0  0
 23 24  1  0  0  0  0
 23 25  1  0  0  0  0
 24 54  1  0  0  0  0
 24 55  1  0  0  0  0
 24 56  1  0  0  0  0
 25 26  2  0  0  0  0
 26 57  1  0  0  0  0
 26 27  1  0  0  0  0
 28 58  1  0  0  0  0
 28 29  1  0  0  0  0
 29 59  1  0  0  0  0
 31 30  1  0  0  0  0
 30 60  1  0  0  0  0
 30 61  1  0  0  0  0
 31 33  1  0  0  0  0
 31 62  1  0  0  0  0
 31 32  1  0  0  0  0
 32 63  1  0  0  0  0
 33 64  1  0  0  0  0
 33 65  1  0  0  0  0
M  ZZC   1 c1
M  ZZC   2 c2
M  ZZC   3 o1
M  ZZC   4 n1
M  ZZC   5 c3
M  ZZC   6 c4
M  ZZC   7 c5
M  ZZC   8 c6
M  ZZC   9 c7
M  ZZC  10 c8
M  ZZC  11 o2
M  ZZC  12 n2
M  ZZC  13 c9
M  ZZC  14 c10
M  ZZC  15 o3
M  ZZC  16 n3
M  ZZC  17 c11
M  ZZC  18 c12
M  ZZC  19 c13
M  ZZC  20 c14
M  ZZC  21 c15
M  ZZC  22 c16
M  ZZC  23 c17
M  ZZC  24 c18
M  ZZC  25 n4
M  ZZC  26 c19
M  ZZC  27 s1
M  ZZC  28 c20
M  ZZC  29 c21
M  ZZC  30 c22
M  ZZC  31 c23
M  ZZC  32 o4
M  ZZC  33 c24
M  ZZC  34 h11
M  ZZC  35 h12
M  ZZC  36 h13
M  ZZC  37 h01
M  ZZC  38 h31
M  ZZC  39 h51
M  ZZC  40 h52
M  ZZC  41 h53
M  ZZC  42 h61
M  ZZC  43 h62
M  ZZC  44 h63
M  ZZC  45 h71
M  ZZC  46 h72
M  ZZC  47 h73
M  ZZC  48 h91
M  ZZC  49 h02
M  ZZC  50 h111
M  ZZC  51 h112
M  ZZC  52 h131
M  ZZC  53 h141
M  ZZC  54 h181
M  ZZC  55 h182
M  ZZC  56 h183
M  ZZC  57 h191
M  ZZC  58 h201
M  ZZC  59 h211
M  ZZC  60 h221
M  ZZC  61 h222
M  ZZC  62 h231
M  ZZC  63 h41
M  ZZC  64 h241
M  ZZC  65 h242
M  ZZM   1 1
M  ZZI   1 111
M  ZZM   2 3
M  ZZI   2 121
M  ZZM   3 7
M  ZZI   3 81
M  ZZM   4 10
M  ZZI   4 211
M  ZZM   5 1
M  ZZI   5 113
M  ZZM   6 1
M  ZZI   6 110
M  ZZM   7 1
M  ZZI   7 111
M  ZZM   8 1
M  ZZI   8 111
M  ZZM   9 1
M  ZZI   9 111
M  ZZM  10 3
M  ZZI  10 121
M  ZZM  11 7
M  ZZI  11 81
M  ZZM  12 10
M  ZZI  12 192
M  ZZM  13 1
M  ZZI  13 113
M  ZZM  14 3
M  ZZI  14 121
M  ZZM  15 7
M  ZZI  15 81
M  ZZM  16 10
M  ZZI  16 211
M  ZZM  17 1
M  ZZI  17 112
M  ZZM  18 37
M  ZZI  18 124
M  ZZM  19 37
M  ZZI  19 125
M  ZZM  20 37
M  ZZI  20 125
M  ZZM  21 37
M  ZZI  21 124
M  ZZM  22 63
M  ZZI  22 104
M  ZZM  23 64
M  ZZI  23 105
M  ZZM  24 1
M  ZZI  24 111
M  ZZM  25 66
M  ZZI  25 222
M  ZZM  26 63
M  ZZI  26 104
M  ZZM  27 44
M  ZZI  27 248
M  ZZM  28 37
M  ZZI  28 125
M  ZZM  29 37
M  ZZI  29 125
M  ZZM  30 1
M  ZZI  30 112
M  ZZM  31 1
M  ZZI  31 113
M  ZZM  32 6
M  ZZI  32 60
M  ZZM  33 1
M  ZZI  33 112
M  ZZM  34 5
M  ZZI  34 1
M  ZZM  35 5
M  ZZI  35 1
M  ZZM  36 5
M  ZZI  36 1
M  ZZM  37 28
M  ZZI  37 11
M  ZZM  38 5
M  ZZI  38 1
M  ZZM  39 5
M  ZZI  39 1
M  ZZM  40 5
M  ZZI  40 1
M  ZZM  41 5
M  ZZI  41 1
M  ZZM  42 5
M  ZZI  42 1
M  ZZM  43 5
M  ZZI  43 1
M  ZZM  44 5
M  ZZI  44 1
M  ZZM  45 5
M  ZZI  45 1
M  ZZM  46 5
M  ZZI  46 1
M  ZZM  47 5
M  ZZI  47 1
M  ZZM  48 5
M  ZZI  48 1
M  ZZM  49 28
M  ZZI  49 11
M  ZZM  50 5
M  ZZI  50 1
M  ZZM  51 5
M  ZZI  51 1
M  ZZM  52 5
M  ZZI  52 1
M  ZZM  53 5
M  ZZI  53 1
M  ZZM  54 5
M  ZZI  54 1
M  ZZM  55 5
M  ZZI  55 1
M  ZZM  56 5
M  ZZI  56 1
M  ZZM  57 5
M  ZZI  57 1
M  ZZM  58 5
M  ZZI  58 1
M  ZZM  59 5
M  ZZI  59 1
M  ZZM  60 5
M  ZZI  60 1
M  ZZM  61 5
M  ZZI  61 1
M  ZZM  62 5
M  ZZI  62 1
M  ZZM  63 21
M  ZZI  63 20
M  ZZM  64 5
M  ZZI  64 1
M  ZZM  65 5
M  ZZI  65 1
M  END
> <IX>
1

> <NAME>
VHL_6W7F_1.pdb

> <Score>
-7.28282

> <Natom>
65

> <Nflex>
8

> <Hbond>
-6.238606

> <Hphob>
-6.847894

> <VwInt>
-28.21593

> <Dsolv>
21.673579

> <SolEl>
23.816774

> <Eintl>
7.551028

> <RecConf>
ND

> <projPath>
VHL_maps/

> <NAME_>
VHL_6W7F_1.pdb

$$$$
