VHL_5T8E_28.pdb
  MOLSOFT 04032206413D

 64 67  0  0  1  0  0  0  0  0999 V2000
   12.9697    0.6353   -5.2619 C   0  0  0  0  0  0  0  0  0  0  0  0
   14.1140   -0.2348   -5.3577 N   0  0  0  0  0  0  0  0  0  0  0  0
   14.1859   -1.2865   -6.2429 C   0  0  0  0  0  0  0  0  0  0  0  0
   13.2161   -1.7855   -6.7929 O   0  0  0  0  0  0  0  0  0  0  0  0
   15.6101   -1.6817   -6.6187 C   0  0  2  0  0  0  0  0  0  0  0  0
   16.5747   -1.3513   -5.5742 N   0  0  0  0  0  0  0  0  0  0  0  0
   16.8676   -2.0782   -4.4192 C   0  0  0  0  0  0  0  0  0  0  0  0
   17.7628   -1.7260   -3.6628 O   0  0  0  0  0  0  0  0  0  0  0  0
   16.0569   -3.3512   -4.1440 C   0  0  2  0  0  0  0  0  0  0  0  0
   15.8204   -3.5035   -2.6185 C   0  0  0  0  0  0  0  0  0  0  0  0
   15.1656   -4.8309   -2.2387 C   0  0  0  0  0  0  0  0  0  0  0  0
   14.9314   -2.3679   -2.1005 C   0  0  0  0  0  0  0  0  0  0  0  0
   16.8137   -4.4966   -4.7505 C   0  0  0  0  0  0  0  0  0  0  0  0
   16.1778   -5.7022   -4.8138 O   0  0  0  0  0  0  0  0  0  0  0  0
   17.0243   -6.6523   -5.3904 N   0  0  0  0  0  0  0  0  0  0  0  0
   18.1559   -5.9944   -5.6614 C   0  0  0  0  0  0  0  0  0  0  0  0
   19.3087   -6.6932   -6.2588 C   0  0  0  0  0  0  0  0  0  0  0  0
   18.0558   -4.6315   -5.3203 C   0  0  0  0  0  0  0  0  0  0  0  0
   17.3953   -0.2140   -5.9427 C   0  0  0  0  0  0  0  0  0  0  0  0
   16.9048    0.2577   -7.3030 C   0  0  2  0  0  0  0  0  0  0  0  0
   16.1210    1.4358   -7.1951 O   0  0  0  0  0  0  0  0  0  0  0  0
   16.0508   -0.8759   -7.8382 C   0  0  0  0  0  0  0  0  0  0  0  0
   13.3265    1.9593   -5.8848 C   0  0  0  0  0  0  0  0  0  0  0  0
   13.8977    2.9702   -5.1193 C   0  0  0  0  0  0  0  0  0  0  0  0
   14.3577    4.1307   -5.7165 C   0  0  0  0  0  0  0  0  0  0  0  0
   14.2604    4.3118   -7.0924 C   0  0  0  0  0  0  0  0  0  0  0  0
   14.8060    5.5095   -7.7087 C   0  0  0  0  0  0  0  0  0  0  0  0
   14.1890    6.6772   -8.1321 C   0  0  0  0  0  0  0  0  0  0  0  0
   12.7514    6.9970   -8.0515 C   0  0  0  0  0  0  0  0  0  0  0  0
   15.0346    7.6328   -8.6544 N   0  0  0  0  0  0  0  0  0  0  0  0
   16.2709    7.1895   -8.6187 C   0  0  0  0  0  0  0  0  0  0  0  0
   16.4984    5.6208   -7.9823 S   0  0  0  0  0  0  0  0  0  0  0  0
   13.6565    3.3209   -7.8598 C   0  0  0  0  0  0  0  0  0  0  0  0
   13.2039    2.1557   -7.2584 C   0  0  0  0  0  0  0  0  0  0  0  0
   12.0965    0.1913   -5.7528 H   0  0  0  0  0  0  0  0  0  0  0  0
   12.7380    0.7508   -4.1986 H   0  0  0  0  0  0  0  0  0  0  0  0
   14.9683    0.0668   -4.9026 H   0  0  0  0  0  0  0  0  0  0  0  0
   15.6233   -2.7572   -6.8202 H   0  0  0  0  0  0  0  0  0  0  0  0
   15.0802   -3.2752   -4.6268 H   0  0  0  0  0  0  0  0  0  0  0  0
   16.7770   -3.4517   -2.0858 H   0  0  0  0  0  0  0  0  0  0  0  0
   14.8977   -4.8365   -1.1802 H   0  0  0  0  0  0  0  0  0  0  0  0
   15.8436   -5.6731   -2.3922 H   0  0  0  0  0  0  0  0  0  0  0  0
   14.2551   -5.0126   -2.8177 H   0  0  0  0  0  0  0  0  0  0  0  0
   14.7669   -2.4592   -1.0224 H   0  0  0  0  0  0  0  0  0  0  0  0
   13.9512   -2.3750   -2.5884 H   0  0  0  0  0  0  0  0  0  0  0  0
   15.3805   -1.3862   -2.2734 H   0  0  0  0  0  0  0  0  0  0  0  0
   19.5225   -6.3002   -7.2568 H   0  0  0  0  0  0  0  0  0  0  0  0
   19.1125   -7.7645   -6.3376 H   0  0  0  0  0  0  0  0  0  0  0  0
   20.2015   -6.5642   -5.6441 H   0  0  0  0  0  0  0  0  0  0  0  0
   18.8022   -3.8631   -5.4530 H   0  0  0  0  0  0  0  0  0  0  0  0
   17.3297    0.5534   -5.1637 H   0  0  0  0  0  0  0  0  0  0  0  0
   18.4274   -0.5578   -5.9943 H   0  0  0  0  0  0  0  0  0  0  0  0
   17.7247    0.5013   -7.9797 H   0  0  0  0  0  0  0  0  0  0  0  0
   16.6695    2.1336   -6.7962 H   0  0  0  0  0  0  0  0  0  0  0  0
   16.6722   -1.4990   -8.4777 H   0  0  0  0  0  0  0  0  0  0  0  0
   15.2096   -0.5215   -8.4419 H   0  0  0  0  0  0  0  0  0  0  0  0
   14.0184    2.8469   -4.0471 H   0  0  0  0  0  0  0  0  0  0  0  0
   14.8136    4.8959   -5.0950 H   0  0  0  0  0  0  0  0  0  0  0  0
   12.5601    7.9848   -8.4741 H   0  0  0  0  0  0  0  0  0  0  0  0
   12.4096    7.0012   -7.0134 H   0  0  0  0  0  0  0  0  0  0  0  0
   12.1602    6.2565   -8.5976 H   0  0  0  0  0  0  0  0  0  0  0  0
   17.1052    7.7783   -8.9721 H   0  0  0  0  0  0  0  0  0  0  0  0
   13.5606    3.4349   -8.9357 H   0  0  0  0  0  0  0  0  0  0  0  0
   12.7807    1.3709   -7.8749 H   0  0  0  0  0  0  0  0  0  0  0  0
  1 35  1  0  0  0  0
  1 36  1  0  0  0  0
  1 23  1  0  0  0  0
  1  2  1  0  0  0  0
  2 37  1  0  0  0  0
  2  3  1  0  0  0  0
  3  4  2  0  0  0  0
  5  3  1  0  0  0  0
  5 38  1  0  0  0  0
  5 22  1  0  0  0  0
  5  6  1  0  0  0  0
  6 19  1  0  0  0  0
  6  7  1  0  0  0  0
  7  8  2  0  0  0  0
  9  7  1  0  0  0  0
  9 39  1  0  0  0  0
  9 10  1  0  0  0  0
  9 13  1  0  0  0  0
 10 40  1  0  0  0  0
 10 12  1  0  0  0  0
 10 11  1  0  0  0  0
 11 41  1  0  0  0  0
 11 42  1  0  0  0  0
 11 43  1  0  0  0  0
 12 44  1  0  0  0  0
 12 45  1  0  0  0  0
 12 46  1  0  0  0  0
 13 18  2  0  0  0  0
 13 14  1  0  0  0  0
 14 15  1  0  0  0  0
 15 16  2  0  0  0  0
 16 18  1  0  0  0  0
 16 17  1  0  0  0  0
 17 47  1  0  0  0  0
 17 48  1  0  0  0  0
 17 49  1  0  0  0  0
 18 50  1  0  0  0  0
 20 19  1  0  0  0  0
 19 51  1  0  0  0  0
 19 52  1  0  0  0  0
 20 22  1  0  0  0  0
 20 53  1  0  0  0  0
 20 21  1  0  0  0  0
 21 54  1  0  0  0  0
 22 55  1  0  0  0  0
 22 56  1  0  0  0  0
 23 24  1  0  0  0  0
 23 34  2  0  0  0  0
 24 57  1  0  0  0  0
 24 25  2  0  0  0  0
 25 58  1  0  0  0  0
 25 26  1  0  0  0  0
 26 33  2  0  0  0  0
 26 27  1  0  0  0  0
 27 28  2  0  0  0  0
 27 32  1  0  0  0  0
 28 29  1  0  0  0  0
 28 30  1  0  0  0  0
 29 59  1  0  0  0  0
 29 60  1  0  0  0  0
 29 61  1  0  0  0  0
 30 31  2  0  0  0  0
 31 62  1  0  0  0  0
 31 32  1  0  0  0  0
 33 63  1  0  0  0  0
 33 34  1  0  0  0  0
 34 64  1  0  0  0  0
M  ZZC   1 c1
M  ZZC   2 n1
M  ZZC   3 c2
M  ZZC   4 o1
M  ZZC   5 c3
M  ZZC   6 n2
M  ZZC   7 c4
M  ZZC   8 o2
M  ZZC   9 c5
M  ZZC  10 c6
M  ZZC  11 c7
M  ZZC  12 c8
M  ZZC  13 c9
M  ZZC  14 o3
M  ZZC  15 n3
M  ZZC  16 c10
M  ZZC  17 c11
M  ZZC  18 c12
M  ZZC  19 c13
M  ZZC  20 c14
M  ZZC  21 o4
M  ZZC  22 c15
M  ZZC  23 c16
M  ZZC  24 c17
M  ZZC  25 c18
M  ZZC  26 c19
M  ZZC  27 c20
M  ZZC  28 c21
M  ZZC  29 c22
M  ZZC  30 n4
M  ZZC  31 c23
M  ZZC  32 s1
M  ZZC  33 c24
M  ZZC  34 c25
M  ZZC  35 h11
M  ZZC  36 h12
M  ZZC  37 h01
M  ZZC  38 h31
M  ZZC  39 h51
M  ZZC  40 h61
M  ZZC  41 h71
M  ZZC  42 h72
M  ZZC  43 h73
M  ZZC  44 h81
M  ZZC  45 h82
M  ZZC  46 h83
M  ZZC  47 h111
M  ZZC  48 h112
M  ZZC  49 h113
M  ZZC  50 h121
M  ZZC  51 h131
M  ZZC  52 h132
M  ZZC  53 h141
M  ZZC  54 h41
M  ZZC  55 h151
M  ZZC  56 h152
M  ZZC  57 h171
M  ZZC  58 h181
M  ZZC  59 h221
M  ZZC  60 h222
M  ZZC  61 h223
M  ZZC  62 h231
M  ZZC  63 h241
M  ZZC  64 h251
M  ZZM   1 1
M  ZZI   1 112
M  ZZM   2 10
M  ZZI   2 211
M  ZZM   3 3
M  ZZI   3 121
M  ZZM   4 7
M  ZZI   4 81
M  ZZM   5 1
M  ZZI   5 113
M  ZZM   6 10
M  ZZI   6 192
M  ZZM   7 3
M  ZZI   7 121
M  ZZM   8 7
M  ZZI   8 81
M  ZZM   9 1
M  ZZI   9 113
M  ZZM  10 1
M  ZZI  10 113
M  ZZM  11 1
M  ZZI  11 111
M  ZZM  12 1
M  ZZI  12 111
M  ZZM  13 63
M  ZZI  13 104
M  ZZM  14 59
M  ZZI  14 56
M  ZZM  15 65
M  ZZI  15 207
M  ZZM  16 64
M  ZZI  16 105
M  ZZM  17 1
M  ZZI  17 111
M  ZZM  18 64
M  ZZI  18 105
M  ZZM  19 1
M  ZZI  19 112
M  ZZM  20 1
M  ZZI  20 113
M  ZZM  21 6
M  ZZI  21 60
M  ZZM  22 1
M  ZZI  22 112
M  ZZM  23 37
M  ZZI  23 124
M  ZZM  24 37
M  ZZI  24 125
M  ZZM  25 37
M  ZZI  25 125
M  ZZM  26 37
M  ZZI  26 124
M  ZZM  27 63
M  ZZI  27 104
M  ZZM  28 64
M  ZZI  28 105
M  ZZM  29 1
M  ZZI  29 111
M  ZZM  30 66
M  ZZI  30 222
M  ZZM  31 63
M  ZZI  31 104
M  ZZM  32 44
M  ZZI  32 248
M  ZZM  33 37
M  ZZI  33 125
M  ZZM  34 37
M  ZZI  34 125
M  ZZM  35 5
M  ZZI  35 1
M  ZZM  36 5
M  ZZI  36 1
M  ZZM  37 28
M  ZZI  37 11
M  ZZM  38 5
M  ZZI  38 1
M  ZZM  39 5
M  ZZI  39 1
M  ZZM  40 5
M  ZZI  40 1
M  ZZM  41 5
M  ZZI  41 1
M  ZZM  42 5
M  ZZI  42 1
M  ZZM  43 5
M  ZZI  43 1
M  ZZM  44 5
M  ZZI  44 1
M  ZZM  45 5
M  ZZI  45 1
M  ZZM  46 5
M  ZZI  46 1
M  ZZM  47 5
M  ZZI  47 1
M  ZZM  48 5
M  ZZI  48 1
M  ZZM  49 5
M  ZZI  49 1
M  ZZM  50 5
M  ZZI  50 1
M  ZZM  51 5
M  ZZI  51 1
M  ZZM  52 5
M  ZZI  52 1
M  ZZM  53 5
M  ZZI  53 1
M  ZZM  54 21
M  ZZI  54 20
M  ZZM  55 5
M  ZZI  55 1
M  ZZM  56 5
M  ZZI  56 1
M  ZZM  57 5
M  ZZI  57 1
M  ZZM  58 5
M  ZZI  58 1
M  ZZM  59 5
M  ZZI  59 1
M  ZZM  60 5
M  ZZI  60 1
M  ZZM  61 5
M  ZZI  61 1
M  ZZM  62 5
M  ZZI  62 1
M  ZZM  63 5
M  ZZI  63 1
M  ZZM  64 5
M  ZZI  64 1
M  END
> <IX>
1

> <NAME>
VHL_5T8E_28.pdb

> <Score>
2.214097

> <Natom>
64

> <Nflex>
8

> <Hbond>
-2.750918

> <Hphob>
-6.725887

> <VwInt>
-26.895577

> <Dsolv>
21.495082

> <SolEl>
22.077338

> <Eintl>
8.472475

> <RecConf>
ND

> <projPath>
VHL_maps/

> <NAME_>
VHL_5T8E_28.pdb

$$$$
