VHL_5GMP_10.pdb
  MOLSOFT 04032206413D

 65 67  0  0  1  0  0  0  0  0999 V2000
   19.1394   -5.9117   -5.8688 C   0  0  0  0  0  0  0  0  0  0  0  0
   17.7719   -5.3588   -5.5695 C   0  0  0  0  0  0  0  0  0  0  0  0
   16.7703   -5.9894   -5.8713 O   0  0  0  0  0  0  0  0  0  0  0  0
   17.7825   -4.1167   -4.9550 N   0  0  0  0  0  0  0  0  0  0  0  0
   16.5754   -3.3381   -4.6705 C   0  0  1  0  0  0  0  0  0  0  0  0
   15.9341   -3.6193   -3.2706 C   0  0  0  0  0  0  0  0  0  0  0  0
   15.6501   -5.1145   -3.0770 C   0  0  0  0  0  0  0  0  0  0  0  0
   14.5907   -2.8795   -3.1738 C   0  0  0  0  0  0  0  0  0  0  0  0
   16.8196   -3.1688   -2.0969 C   0  0  0  0  0  0  0  0  0  0  0  0
   16.9442   -1.8498   -4.8357 C   0  0  0  0  0  0  0  0  0  0  0  0
   17.8036   -1.3259   -4.1401 O   0  0  0  0  0  0  0  0  0  0  0  0
   16.2674   -1.1200   -5.8111 N   0  0  0  0  0  0  0  0  0  0  0  0
   16.3012    0.3330   -5.8516 C   0  0  2  0  0  0  0  0  0  0  0  0
   15.0670    0.8874   -5.1250 C   0  0  0  0  0  0  0  0  0  0  0  0
   13.9315    0.4939   -5.3600 O   0  0  0  0  0  0  0  0  0  0  0  0
   15.3491    1.8769   -4.2007 N   0  0  0  0  0  0  0  0  0  0  0  0
   14.3085    2.5126   -3.4129 C   0  0  0  0  0  0  0  0  0  0  0  0
   14.1728    1.8787   -2.0529 C   0  0  0  0  0  0  0  0  0  0  0  0
   13.5363    0.6527   -1.9001 C   0  0  0  0  0  0  0  0  0  0  0  0
   13.4525    0.0420   -0.6611 C   0  0  0  0  0  0  0  0  0  0  0  0
   14.0096    0.6373    0.4658 C   0  0  0  0  0  0  0  0  0  0  0  0
   13.9519   -0.0300    1.7620 C   0  0  0  0  0  0  0  0  0  0  0  0
   14.2934   -1.3267    2.1305 C   0  0  0  0  0  0  0  0  0  0  0  0
   14.9051   -2.3694    1.2730 C   0  0  0  0  0  0  0  0  0  0  0  0
   14.0487   -1.6451    3.4518 N   0  0  0  0  0  0  0  0  0  0  0  0
   13.5699   -0.5938    4.0775 C   0  0  0  0  0  0  0  0  0  0  0  0
   13.3941    0.8270    3.1472 S   0  0  0  0  0  0  0  0  0  0  0  0
   14.6293    1.8752    0.3159 C   0  0  0  0  0  0  0  0  0  0  0  0
   14.7108    2.4857   -0.9242 C   0  0  0  0  0  0  0  0  0  0  0  0
   16.2390    0.6731   -7.3300 C   0  0  0  0  0  0  0  0  0  0  0  0
   15.5829   -0.5351   -7.9962 C   0  0  1  0  0  0  0  0  0  0  0  0
   16.3464   -0.9427   -9.1376 O   0  0  0  0  0  0  0  0  0  0  0  0
   15.5520   -1.6476   -6.9510 C   0  0  0  0  0  0  0  0  0  0  0  0
   19.9162   -5.1568   -5.7381 H   0  0  0  0  0  0  0  0  0  0  0  0
   19.1722   -6.2508   -6.9077 H   0  0  0  0  0  0  0  0  0  0  0  0
   19.3401   -6.7581   -5.2072 H   0  0  0  0  0  0  0  0  0  0  0  0
   18.6744   -3.6929   -4.7283 H   0  0  0  0  0  0  0  0  0  0  0  0
   15.8559   -3.6151   -5.4352 H   0  0  0  0  0  0  0  0  0  0  0  0
   15.0963   -5.3045   -2.1519 H   0  0  0  0  0  0  0  0  0  0  0  0
   16.5698   -5.7034   -3.0237 H   0  0  0  0  0  0  0  0  0  0  0  0
   15.0473   -5.5073   -3.8954 H   0  0  0  0  0  0  0  0  0  0  0  0
   14.7146   -1.7983   -3.2713 H   0  0  0  0  0  0  0  0  0  0  0  0
   14.1025   -3.0588   -2.2112 H   0  0  0  0  0  0  0  0  0  0  0  0
   13.8983   -3.2014   -3.9580 H   0  0  0  0  0  0  0  0  0  0  0  0
   16.4422   -3.5547   -1.1450 H   0  0  0  0  0  0  0  0  0  0  0  0
   16.8550   -2.0805   -1.9969 H   0  0  0  0  0  0  0  0  0  0  0  0
   17.8454   -3.5260   -2.2055 H   0  0  0  0  0  0  0  0  0  0  0  0
   17.2162    0.7169   -5.3862 H   0  0  0  0  0  0  0  0  0  0  0  0
   16.3108    2.1355   -4.0093 H   0  0  0  0  0  0  0  0  0  0  0  0
   14.5704    3.5717   -3.3216 H   0  0  0  0  0  0  0  0  0  0  0  0
   13.3532    2.4658   -3.9448 H   0  0  0  0  0  0  0  0  0  0  0  0
   13.1104    0.1519   -2.7639 H   0  0  0  0  0  0  0  0  0  0  0  0
   12.9418   -0.9134   -0.5856 H   0  0  0  0  0  0  0  0  0  0  0  0
   14.2216   -2.6739    0.4750 H   0  0  0  0  0  0  0  0  0  0  0  0
   15.1451   -3.2599    1.8607 H   0  0  0  0  0  0  0  0  0  0  0  0
   15.8233   -2.0108    0.8028 H   0  0  0  0  0  0  0  0  0  0  0  0
   13.3054   -0.6158    5.1248 H   0  0  0  0  0  0  0  0  0  0  0  0
   15.0803    2.3740    1.1685 H   0  0  0  0  0  0  0  0  0  0  0  0
   15.2160    3.4437   -1.0049 H   0  0  0  0  0  0  0  0  0  0  0  0
   15.6758    1.5917   -7.5263 H   0  0  0  0  0  0  0  0  0  0  0  0
   17.2501    0.8354   -7.7176 H   0  0  0  0  0  0  0  0  0  0  0  0
   14.5723   -0.2946   -8.3316 H   0  0  0  0  0  0  0  0  0  0  0  0
   17.2881   -0.8895   -8.8848 H   0  0  0  0  0  0  0  0  0  0  0  0
   16.0019   -2.5799   -7.3002 H   0  0  0  0  0  0  0  0  0  0  0  0
   14.5274   -1.8510   -6.6263 H   0  0  0  0  0  0  0  0  0  0  0  0
  1 34  1  0  0  0  0
  1 35  1  0  0  0  0
  1 36  1  0  0  0  0
  1  2  1  0  0  0  0
  2  3  2  0  0  0  0
  2  4  1  0  0  0  0
  4 37  1  0  0  0  0
  5  4  1  0  0  0  0
  5 38  1  0  0  0  0
  5  6  1  0  0  0  0
  5 10  1  0  0  0  0
  6  7  1  0  0  0  0
  6  8  1  0  0  0  0
  6  9  1  0  0  0  0
  7 39  1  0  0  0  0
  7 40  1  0  0  0  0
  7 41  1  0  0  0  0
  8 42  1  0  0  0  0
  8 43  1  0  0  0  0
  8 44  1  0  0  0  0
  9 45  1  0  0  0  0
  9 46  1  0  0  0  0
  9 47  1  0  0  0  0
 10 11  2  0  0  0  0
 10 12  1  0  0  0  0
 12 33  1  0  0  0  0
 13 12  1  0  0  0  0
 13 30  1  0  0  0  0
 13 48  1  0  0  0  0
 13 14  1  0  0  0  0
 14 15  2  0  0  0  0
 14 16  1  0  0  0  0
 16 49  1  0  0  0  0
 16 17  1  0  0  0  0
 17 50  1  0  0  0  0
 17 51  1  0  0  0  0
 17 18  1  0  0  0  0
 18 19  1  0  0  0  0
 18 29  2  0  0  0  0
 19 52  1  0  0  0  0
 19 20  2  0  0  0  0
 20 53  1  0  0  0  0
 20 21  1  0  0  0  0
 21 28  2  0  0  0  0
 21 22  1  0  0  0  0
 22 23  2  0  0  0  0
 22 27  1  0  0  0  0
 23 24  1  0  0  0  0
 23 25  1  0  0  0  0
 24 54  1  0  0  0  0
 24 55  1  0  0  0  0
 24 56  1  0  0  0  0
 25 26  2  0  0  0  0
 26 57  1  0  0  0  0
 26 27  1  0  0  0  0
 28 58  1  0  0  0  0
 28 29  1  0  0  0  0
 29 59  1  0  0  0  0
 31 30  1  0  0  0  0
 30 60  1  0  0  0  0
 30 61  1  0  0  0  0
 31 33  1  0  0  0  0
 31 62  1  0  0  0  0
 31 32  1  0  0  0  0
 32 63  1  0  0  0  0
 33 64  1  0  0  0  0
 33 65  1  0  0  0  0
M  ZZC   1 c1
M  ZZC   2 c2
M  ZZC   3 o1
M  ZZC   4 n1
M  ZZC   5 c3
M  ZZC   6 c4
M  ZZC   7 c5
M  ZZC   8 c6
M  ZZC   9 c7
M  ZZC  10 c8
M  ZZC  11 o2
M  ZZC  12 n2
M  ZZC  13 c9
M  ZZC  14 c10
M  ZZC  15 o3
M  ZZC  16 n3
M  ZZC  17 c11
M  ZZC  18 c12
M  ZZC  19 c13
M  ZZC  20 c14
M  ZZC  21 c15
M  ZZC  22 c16
M  ZZC  23 c17
M  ZZC  24 c18
M  ZZC  25 n4
M  ZZC  26 c19
M  ZZC  27 s1
M  ZZC  28 c20
M  ZZC  29 c21
M  ZZC  30 c22
M  ZZC  31 c23
M  ZZC  32 o4
M  ZZC  33 c24
M  ZZC  34 h11
M  ZZC  35 h12
M  ZZC  36 h13
M  ZZC  37 h01
M  ZZC  38 h31
M  ZZC  39 h51
M  ZZC  40 h52
M  ZZC  41 h53
M  ZZC  42 h61
M  ZZC  43 h62
M  ZZC  44 h63
M  ZZC  45 h71
M  ZZC  46 h72
M  ZZC  47 h73
M  ZZC  48 h91
M  ZZC  49 h02
M  ZZC  50 h111
M  ZZC  51 h112
M  ZZC  52 h131
M  ZZC  53 h141
M  ZZC  54 h181
M  ZZC  55 h182
M  ZZC  56 h183
M  ZZC  57 h191
M  ZZC  58 h201
M  ZZC  59 h211
M  ZZC  60 h221
M  ZZC  61 h222
M  ZZC  62 h231
M  ZZC  63 h41
M  ZZC  64 h241
M  ZZC  65 h242
M  ZZM   1 1
M  ZZI   1 111
M  ZZM   2 3
M  ZZI   2 121
M  ZZM   3 7
M  ZZI   3 81
M  ZZM   4 10
M  ZZI   4 211
M  ZZM   5 1
M  ZZI   5 113
M  ZZM   6 1
M  ZZI   6 110
M  ZZM   7 1
M  ZZI   7 111
M  ZZM   8 1
M  ZZI   8 111
M  ZZM   9 1
M  ZZI   9 111
M  ZZM  10 3
M  ZZI  10 121
M  ZZM  11 7
M  ZZI  11 81
M  ZZM  12 10
M  ZZI  12 192
M  ZZM  13 1
M  ZZI  13 113
M  ZZM  14 3
M  ZZI  14 121
M  ZZM  15 7
M  ZZI  15 81
M  ZZM  16 10
M  ZZI  16 211
M  ZZM  17 1
M  ZZI  17 112
M  ZZM  18 37
M  ZZI  18 124
M  ZZM  19 37
M  ZZI  19 125
M  ZZM  20 37
M  ZZI  20 125
M  ZZM  21 37
M  ZZI  21 124
M  ZZM  22 63
M  ZZI  22 104
M  ZZM  23 64
M  ZZI  23 105
M  ZZM  24 1
M  ZZI  24 111
M  ZZM  25 66
M  ZZI  25 222
M  ZZM  26 63
M  ZZI  26 104
M  ZZM  27 44
M  ZZI  27 248
M  ZZM  28 37
M  ZZI  28 125
M  ZZM  29 37
M  ZZI  29 125
M  ZZM  30 1
M  ZZI  30 112
M  ZZM  31 1
M  ZZI  31 113
M  ZZM  32 6
M  ZZI  32 60
M  ZZM  33 1
M  ZZI  33 112
M  ZZM  34 5
M  ZZI  34 1
M  ZZM  35 5
M  ZZI  35 1
M  ZZM  36 5
M  ZZI  36 1
M  ZZM  37 28
M  ZZI  37 11
M  ZZM  38 5
M  ZZI  38 1
M  ZZM  39 5
M  ZZI  39 1
M  ZZM  40 5
M  ZZI  40 1
M  ZZM  41 5
M  ZZI  41 1
M  ZZM  42 5
M  ZZI  42 1
M  ZZM  43 5
M  ZZI  43 1
M  ZZM  44 5
M  ZZI  44 1
M  ZZM  45 5
M  ZZI  45 1
M  ZZM  46 5
M  ZZI  46 1
M  ZZM  47 5
M  ZZI  47 1
M  ZZM  48 5
M  ZZI  48 1
M  ZZM  49 28
M  ZZI  49 11
M  ZZM  50 5
M  ZZI  50 1
M  ZZM  51 5
M  ZZI  51 1
M  ZZM  52 5
M  ZZI  52 1
M  ZZM  53 5
M  ZZI  53 1
M  ZZM  54 5
M  ZZI  54 1
M  ZZM  55 5
M  ZZI  55 1
M  ZZM  56 5
M  ZZI  56 1
M  ZZM  57 5
M  ZZI  57 1
M  ZZM  58 5
M  ZZI  58 1
M  ZZM  59 5
M  ZZI  59 1
M  ZZM  60 5
M  ZZI  60 1
M  ZZM  61 5
M  ZZI  61 1
M  ZZM  62 5
M  ZZI  62 1
M  ZZM  63 21
M  ZZI  63 20
M  ZZM  64 5
M  ZZI  64 1
M  ZZM  65 5
M  ZZI  65 1
M  END
> <IX>
1

> <NAME>
VHL_5GMP_10.pdb

> <Score>
-26.421915

> <Natom>
65

> <Nflex>
8

> <Hbond>
-7.314614

> <Hphob>
-6.845924

> <VwInt>
-27.795748

> <Dsolv>
15.534769

> <SolEl>
6.205439

> <Eintl>
6.533179

> <RecConf>
ND

> <projPath>
VHL_maps/

> <NAME_>
VHL_5GMP_10.pdb

$$$$
