VHL_5T8E_10.pdb
  MOLSOFT 04032206433D

 69 72  0  0  1  0  0  0  0  0999 V2000
   18.7598   -7.3457   -5.9957 C   0  0  0  0  0  0  0  0  0  0  0  0
   17.5984   -7.3971   -5.0007 C   0  0  0  0  0  0  0  0  0  0  0  0
   17.5759   -5.9410   -5.0813 N   0  0  0  0  0  0  0  0  0  0  0  0
   16.6760   -5.0339   -4.5632 C   0  0  0  0  0  0  0  0  0  0  0  0
   15.7155   -5.3622   -3.8831 O   0  0  0  0  0  0  0  0  0  0  0  0
   16.9572   -3.5979   -4.9359 C   0  0  0  0  0  0  0  0  0  0  0  0
   15.9809   -2.6317   -4.2470 C   0  0  2  0  0  0  0  0  0  0  0  0
   16.0874   -1.3096   -4.8385 N   0  0  0  0  0  0  0  0  0  0  0  0
   15.4318   -0.9442   -6.0015 C   0  0  0  0  0  0  0  0  0  0  0  0
   14.6448   -1.6681   -6.5990 O   0  0  0  0  0  0  0  0  0  0  0  0
   15.7663    0.4872   -6.4390 C   0  0  2  0  0  0  0  0  0  0  0  0
   14.9828    1.4420   -5.6624 N   0  0  0  0  0  0  0  0  0  0  0  0
   15.3739    1.8567   -4.3895 C   0  0  0  0  0  0  0  0  0  0  0  0
   16.3860    1.4167   -3.8581 O   0  0  0  0  0  0  0  0  0  0  0  0
   14.4795    2.8836   -3.6830 C   0  0  2  0  0  0  0  0  0  0  0  0
   15.2884    4.1483   -3.3087 C   0  0  0  0  0  0  0  0  0  0  0  0
   14.4306    5.1822   -2.5715 C   0  0  0  0  0  0  0  0  0  0  0  0
   15.8849    4.8075   -4.5549 C   0  0  0  0  0  0  0  0  0  0  0  0
   13.8653    2.2283   -2.4876 C   0  0  0  0  0  0  0  0  0  0  0  0
   12.5990    2.6276   -2.1794 O   0  0  0  0  0  0  0  0  0  0  0  0
   12.1750    1.9793   -1.0192 N   0  0  0  0  0  0  0  0  0  0  0  0
   13.1855    1.1704   -0.6736 C   0  0  0  0  0  0  0  0  0  0  0  0
   13.0849    0.2983    0.5158 C   0  0  0  0  0  0  0  0  0  0  0  0
   14.2730    1.2937   -1.5647 C   0  0  0  0  0  0  0  0  0  0  0  0
   13.8726    1.9625   -6.4338 C   0  0  0  0  0  0  0  0  0  0  0  0
   13.9495    1.2858   -7.7924 C   0  0  1  0  0  0  0  0  0  0  0  0
   13.6962    2.2199   -8.8435 O   0  0  0  0  0  0  0  0  0  0  0  0
   15.3796    0.7773   -7.8798 C   0  0  0  0  0  0  0  0  0  0  0  0
   16.2023   -2.5566   -2.7472 C   0  0  0  0  0  0  0  0  0  0  0  0
   17.4366   -2.2053   -2.1981 C   0  0  0  0  0  0  0  0  0  0  0  0
   17.6235   -2.1736   -0.8280 C   0  0  0  0  0  0  0  0  0  0  0  0
   16.5799   -2.4830    0.0225 C   0  0  0  0  0  0  0  0  0  0  0  0
   15.3466   -2.8161   -0.5026 C   0  0  0  0  0  0  0  0  0  0  0  0
   15.1574   -2.8492   -1.8729 C   0  0  0  0  0  0  0  0  0  0  0  0
   18.8370   -5.8318   -5.8192 C   0  0  0  0  0  0  0  0  0  0  0  0
   19.6588   -7.8928   -5.6958 H   0  0  0  0  0  0  0  0  0  0  0  0
   18.4741   -7.6394   -7.0063 H   0  0  0  0  0  0  0  0  0  0  0  0
   16.6877   -7.8721   -5.3778 H   0  0  0  0  0  0  0  0  0  0  0  0
   17.8391   -7.7583   -3.9987 H   0  0  0  0  0  0  0  0  0  0  0  0
   17.9999   -3.3592   -4.7024 H   0  0  0  0  0  0  0  0  0  0  0  0
   16.8556   -3.5214   -6.0232 H   0  0  0  0  0  0  0  0  0  0  0  0
   14.9560   -2.9737   -4.4354 H   0  0  0  0  0  0  0  0  0  0  0  0
   16.6387   -0.6040   -4.3540 H   0  0  0  0  0  0  0  0  0  0  0  0
   16.8387    0.6567   -6.2826 H   0  0  0  0  0  0  0  0  0  0  0  0
   13.6631    3.1895   -4.3412 H   0  0  0  0  0  0  0  0  0  0  0  0
   16.1181    3.8714   -2.6477 H   0  0  0  0  0  0  0  0  0  0  0  0
   14.9993    6.0962   -2.3759 H   0  0  0  0  0  0  0  0  0  0  0  0
   14.0897    4.8094   -1.6017 H   0  0  0  0  0  0  0  0  0  0  0  0
   13.5475    5.4601   -3.1561 H   0  0  0  0  0  0  0  0  0  0  0  0
   16.5807    4.1413   -5.0727 H   0  0  0  0  0  0  0  0  0  0  0  0
   16.4431    5.7109   -4.2907 H   0  0  0  0  0  0  0  0  0  0  0  0
   15.1038    5.0961   -5.2659 H   0  0  0  0  0  0  0  0  0  0  0  0
   12.4572   -0.5721    0.3027 H   0  0  0  0  0  0  0  0  0  0  0  0
   12.6537    0.8416    1.3618 H   0  0  0  0  0  0  0  0  0  0  0  0
   14.0695   -0.0646    0.8233 H   0  0  0  0  0  0  0  0  0  0  0  0
   15.2224    0.7783   -1.5275 H   0  0  0  0  0  0  0  0  0  0  0  0
   12.9363    1.7187   -5.9233 H   0  0  0  0  0  0  0  0  0  0  0  0
   13.9571    3.0520   -6.5104 H   0  0  0  0  0  0  0  0  0  0  0  0
   13.2328    0.4602   -7.8583 H   0  0  0  0  0  0  0  0  0  0  0  0
   12.8176    2.6119   -8.6815 H   0  0  0  0  0  0  0  0  0  0  0  0
   16.0281    1.5596   -8.2891 H   0  0  0  0  0  0  0  0  0  0  0  0
   15.4758   -0.0897   -8.5418 H   0  0  0  0  0  0  0  0  0  0  0  0
   18.2751   -1.9537   -2.8395 H   0  0  0  0  0  0  0  0  0  0  0  0
   18.5946   -1.9079   -0.4214 H   0  0  0  0  0  0  0  0  0  0  0  0
   16.7277   -2.4624    1.0974 H   0  0  0  0  0  0  0  0  0  0  0  0
   14.5260   -3.0566    0.1639 H   0  0  0  0  0  0  0  0  0  0  0  0
   14.1809   -3.1234   -2.2608 H   0  0  0  0  0  0  0  0  0  0  0  0
   19.6752   -5.4923   -5.2124 H   0  0  0  0  0  0  0  0  0  0  0  0
   18.7818   -5.2457   -6.7376 H   0  0  0  0  0  0  0  0  0  0  0  0
  1 36  1  0  0  0  0
  1 37  1  0  0  0  0
  1  2  1  0  0  0  0
  1 35  1  0  0  0  0
  2 38  1  0  0  0  0
  2 39  1  0  0  0  0
  2  3  1  0  0  0  0
  3 35  1  0  0  0  0
  3  4  1  0  0  0  0
  4  5  2  0  0  0  0
  4  6  1  0  0  0  0
  6 40  1  0  0  0  0
  6 41  1  0  0  0  0
  7  6  1  0  0  0  0
  7 42  1  0  0  0  0
  7 29  1  0  0  0  0
  7  8  1  0  0  0  0
  8 43  1  0  0  0  0
  8  9  1  0  0  0  0
  9 10  2  0  0  0  0
 11  9  1  0  0  0  0
 11 44  1  0  0  0  0
 11 28  1  0  0  0  0
 11 12  1  0  0  0  0
 12 25  1  0  0  0  0
 12 13  1  0  0  0  0
 13 14  2  0  0  0  0
 15 13  1  0  0  0  0
 15 45  1  0  0  0  0
 15 16  1  0  0  0  0
 15 19  1  0  0  0  0
 16 46  1  0  0  0  0
 16 18  1  0  0  0  0
 16 17  1  0  0  0  0
 17 47  1  0  0  0  0
 17 48  1  0  0  0  0
 17 49  1  0  0  0  0
 18 50  1  0  0  0  0
 18 51  1  0  0  0  0
 18 52  1  0  0  0  0
 19 24  2  0  0  0  0
 19 20  1  0  0  0  0
 20 21  1  0  0  0  0
 21 22  2  0  0  0  0
 22 24  1  0  0  0  0
 22 23  1  0  0  0  0
 23 53  1  0  0  0  0
 23 54  1  0  0  0  0
 23 55  1  0  0  0  0
 24 56  1  0  0  0  0
 26 25  1  0  0  0  0
 25 57  1  0  0  0  0
 25 58  1  0  0  0  0
 26 28  1  0  0  0  0
 26 59  1  0  0  0  0
 26 27  1  0  0  0  0
 27 60  1  0  0  0  0
 28 61  1  0  0  0  0
 28 62  1  0  0  0  0
 29 30  1  0  0  0  0
 29 34  2  0  0  0  0
 30 63  1  0  0  0  0
 30 31  2  0  0  0  0
 31 64  1  0  0  0  0
 31 32  1  0  0  0  0
 32 65  1  0  0  0  0
 32 33  2  0  0  0  0
 33 66  1  0  0  0  0
 33 34  1  0  0  0  0
 34 67  1  0  0  0  0
 35 68  1  0  0  0  0
 35 69  1  0  0  0  0
M  ZZC   1 c1
M  ZZC   2 c2
M  ZZC   3 n1
M  ZZC   4 c3
M  ZZC   5 o1
M  ZZC   6 c4
M  ZZC   7 c5
M  ZZC   8 n2
M  ZZC   9 c6
M  ZZC  10 o2
M  ZZC  11 c7
M  ZZC  12 n3
M  ZZC  13 c8
M  ZZC  14 o3
M  ZZC  15 c9
M  ZZC  16 c10
M  ZZC  17 c11
M  ZZC  18 c12
M  ZZC  19 c13
M  ZZC  20 o4
M  ZZC  21 n4
M  ZZC  22 c14
M  ZZC  23 c15
M  ZZC  24 c16
M  ZZC  25 c17
M  ZZC  26 c18
M  ZZC  27 o5
M  ZZC  28 c19
M  ZZC  29 c20
M  ZZC  30 c21
M  ZZC  31 c22
M  ZZC  32 c23
M  ZZC  33 c24
M  ZZC  34 c25
M  ZZC  35 c26
M  ZZC  36 h11
M  ZZC  37 h12
M  ZZC  38 h21
M  ZZC  39 h22
M  ZZC  40 h41
M  ZZC  41 h42
M  ZZC  42 h51
M  ZZC  43 h01
M  ZZC  44 h71
M  ZZC  45 h91
M  ZZC  46 h101
M  ZZC  47 h111
M  ZZC  48 h112
M  ZZC  49 h113
M  ZZC  50 h121
M  ZZC  51 h122
M  ZZC  52 h123
M  ZZC  53 h151
M  ZZC  54 h152
M  ZZC  55 h153
M  ZZC  56 h161
M  ZZC  57 h171
M  ZZC  58 h172
M  ZZC  59 h181
M  ZZC  60 h02
M  ZZC  61 h191
M  ZZC  62 h192
M  ZZC  63 h211
M  ZZC  64 h221
M  ZZC  65 h231
M  ZZC  66 h241
M  ZZC  67 h251
M  ZZC  68 h261
M  ZZC  69 h262
M  ZZM   1 20
M  ZZI   1 108
M  ZZM   2 20
M  ZZI   2 108
M  ZZM   3 10
M  ZZI   3 191
M  ZZM   4 3
M  ZZI   4 121
M  ZZM   5 7
M  ZZI   5 81
M  ZZM   6 1
M  ZZI   6 112
M  ZZM   7 1
M  ZZI   7 113
M  ZZM   8 10
M  ZZI   8 211
M  ZZM   9 3
M  ZZI   9 121
M  ZZM  10 7
M  ZZI  10 81
M  ZZM  11 1
M  ZZI  11 113
M  ZZM  12 10
M  ZZI  12 192
M  ZZM  13 3
M  ZZI  13 121
M  ZZM  14 7
M  ZZI  14 81
M  ZZM  15 1
M  ZZI  15 113
M  ZZM  16 1
M  ZZI  16 113
M  ZZM  17 1
M  ZZI  17 111
M  ZZM  18 1
M  ZZI  18 111
M  ZZM  19 63
M  ZZI  19 104
M  ZZM  20 59
M  ZZI  20 56
M  ZZM  21 65
M  ZZI  21 207
M  ZZM  22 64
M  ZZI  22 105
M  ZZM  23 1
M  ZZI  23 111
M  ZZM  24 64
M  ZZI  24 105
M  ZZM  25 1
M  ZZI  25 112
M  ZZM  26 1
M  ZZI  26 113
M  ZZM  27 6
M  ZZI  27 60
M  ZZM  28 1
M  ZZI  28 112
M  ZZM  29 37
M  ZZI  29 124
M  ZZM  30 37
M  ZZI  30 125
M  ZZM  31 37
M  ZZI  31 125
M  ZZM  32 37
M  ZZI  32 125
M  ZZM  33 37
M  ZZI  33 125
M  ZZM  34 37
M  ZZI  34 125
M  ZZM  35 20
M  ZZI  35 108
M  ZZM  36 5
M  ZZI  36 1
M  ZZM  37 5
M  ZZI  37 1
M  ZZM  38 5
M  ZZI  38 1
M  ZZM  39 5
M  ZZI  39 1
M  ZZM  40 5
M  ZZI  40 1
M  ZZM  41 5
M  ZZI  41 1
M  ZZM  42 5
M  ZZI  42 1
M  ZZM  43 28
M  ZZI  43 11
M  ZZM  44 5
M  ZZI  44 1
M  ZZM  45 5
M  ZZI  45 1
M  ZZM  46 5
M  ZZI  46 1
M  ZZM  47 5
M  ZZI  47 1
M  ZZM  48 5
M  ZZI  48 1
M  ZZM  49 5
M  ZZI  49 1
M  ZZM  50 5
M  ZZI  50 1
M  ZZM  51 5
M  ZZI  51 1
M  ZZM  52 5
M  ZZI  52 1
M  ZZM  53 5
M  ZZI  53 1
M  ZZM  54 5
M  ZZI  54 1
M  ZZM  55 5
M  ZZI  55 1
M  ZZM  56 5
M  ZZI  56 1
M  ZZM  57 5
M  ZZI  57 1
M  ZZM  58 5
M  ZZI  58 1
M  ZZM  59 5
M  ZZI  59 1
M  ZZM  60 21
M  ZZI  60 20
M  ZZM  61 5
M  ZZI  61 1
M  ZZM  62 5
M  ZZI  62 1
M  ZZM  63 5
M  ZZI  63 1
M  ZZM  64 5
M  ZZI  64 1
M  ZZM  65 5
M  ZZI  65 1
M  ZZM  66 5
M  ZZI  66 1
M  ZZM  67 5
M  ZZI  67 1
M  ZZM  68 5
M  ZZI  68 1
M  ZZM  69 5
M  ZZI  69 1
M  END
> <IX>
1

> <NAME>
VHL_5T8E_10.pdb

> <Score>
-16.597693

> <Natom>
69

> <Nflex>
11

> <Hbond>
-4.544852

> <Hphob>
-6.464166

> <VwInt>
-30.258763

> <Dsolv>
17.639873

> <SolEl>
14.582199

> <Eintl>
0.060637

> <RecConf>
ND

> <projPath>
VHL_maps/

> <NAME_>
VHL_5T8E_10.pdb

$$$$
