VHL_1ERR_33.pdb
  MOLSOFT 04032206363D

 71 72  0  0  1  0  0  0  0  0999 V2000
   15.8115   -6.2196   -5.4614 O   0  0  0  0  0  0  0  0  0  0  0  0
   16.8919   -5.8975   -4.9984 C   0  0  0  0  0  0  0  0  0  0  0  0
   17.1430   -4.7282   -4.3074 N   0  0  0  0  0  0  0  0  0  0  0  0
   16.1587   -3.6603   -4.0668 C   0  0  1  0  0  0  0  0  0  0  0  0
   15.8559   -3.4809   -2.5503 C   0  0  0  0  0  0  0  0  0  0  0  0
   17.0900   -3.0315   -1.7551 C   0  0  0  0  0  0  0  0  0  0  0  0
   15.3589   -4.8232   -2.0004 C   0  0  0  0  0  0  0  0  0  0  0  0
   14.7443   -2.4572   -2.2921 C   0  0  0  0  0  0  0  0  0  0  0  0
   16.7412   -2.4337   -4.7957 C   0  0  0  0  0  0  0  0  0  0  0  0
   17.9470   -2.2173   -4.7900 O   0  0  0  0  0  0  0  0  0  0  0  0
   15.8650   -1.5995   -5.4942 N   0  0  0  0  0  0  0  0  0  0  0  0
   16.3767   -0.6503   -6.4695 C   0  0  2  0  0  0  0  0  0  0  0  0
   16.8179    0.6644   -5.8247 C   0  0  0  0  0  0  0  0  0  0  0  0
   16.4666    1.0067   -4.7034 O   0  0  0  0  0  0  0  0  0  0  0  0
   17.6026    1.4411   -6.6605 N   0  0  0  0  0  0  0  0  0  0  0  0
   18.0755    2.7690   -6.2900 C   0  0  1  0  0  0  0  0  0  0  0  0
   19.5330    2.9175   -6.7308 C   0  0  0  0  0  0  0  0  0  0  0  0
   17.1380    3.8614   -6.7934 C   0  0  0  0  0  0  0  0  0  0  0  0
   17.5409    4.9037   -7.6284 C   0  0  0  0  0  0  0  0  0  0  0  0
   16.6661    5.9083   -8.0127 C   0  0  0  0  0  0  0  0  0  0  0  0
   15.3385    5.9398   -7.5819 C   0  0  0  0  0  0  0  0  0  0  0  0
   14.3546    7.0550   -7.9630 C   0  0  0  0  0  0  0  0  0  0  0  0
   13.6247    7.5960   -6.7185 C   0  0  0  0  0  0  0  0  0  0  0  0
   13.3181    6.4852   -8.9389 C   0  0  0  0  0  0  0  0  0  0  0  0
   15.0323    8.2607   -8.6373 C   0  0  0  0  0  0  0  0  0  0  0  0
   14.9345    4.8780   -6.7748 C   0  0  0  0  0  0  0  0  0  0  0  0
   15.8070    3.8795   -6.3849 C   0  0  0  0  0  0  0  0  0  0  0  0
   15.2122   -0.4505   -7.4267 C   0  0  0  0  0  0  0  0  0  0  0  0
   13.9894   -0.5726   -6.5336 C   0  0  1  0  0  0  0  0  0  0  0  0
   12.8808   -1.0792   -7.2731 O   0  0  0  0  0  0  0  0  0  0  0  0
   14.4139   -1.5546   -5.4502 C   0  0  0  0  0  0  0  0  0  0  0  0
   18.0904   -6.7969   -5.1187 C   0  0  0  0  0  0  0  0  0  0  0  0
   18.1017   -4.5453   -4.0339 H   0  0  0  0  0  0  0  0  0  0  0  0
   15.2351   -3.9598   -4.5600 H   0  0  0  0  0  0  0  0  0  0  0  0
   17.9174   -3.7296   -1.8647 H   0  0  0  0  0  0  0  0  0  0  0  0
   16.8713   -2.9621   -0.6846 H   0  0  0  0  0  0  0  0  0  0  0  0
   17.4453   -2.0476   -2.0768 H   0  0  0  0  0  0  0  0  0  0  0  0
   14.4784   -5.1794   -2.5447 H   0  0  0  0  0  0  0  0  0  0  0  0
   15.0785   -4.7363   -0.9484 H   0  0  0  0  0  0  0  0  0  0  0  0
   16.1213   -5.6006   -2.0768 H   0  0  0  0  0  0  0  0  0  0  0  0
   14.4863   -2.4070   -1.2298 H   0  0  0  0  0  0  0  0  0  0  0  0
   13.8427   -2.6873   -2.8662 H   0  0  0  0  0  0  0  0  0  0  0  0
   15.0522   -1.4498   -2.5912 H   0  0  0  0  0  0  0  0  0  0  0  0
   17.2386   -1.0794   -6.9857 H   0  0  0  0  0  0  0  0  0  0  0  0
   17.8947    1.0563   -7.5540 H   0  0  0  0  0  0  0  0  0  0  0  0
   18.0733    2.8297   -5.1958 H   0  0  0  0  0  0  0  0  0  0  0  0
   19.9503    3.8635   -6.3780 H   0  0  0  0  0  0  0  0  0  0  0  0
   19.6284    2.9015   -7.8210 H   0  0  0  0  0  0  0  0  0  0  0  0
   20.1688    2.1266   -6.3224 H   0  0  0  0  0  0  0  0  0  0  0  0
   18.5607    4.9649   -7.9926 H   0  0  0  0  0  0  0  0  0  0  0  0
   17.0571    6.6826   -8.6641 H   0  0  0  0  0  0  0  0  0  0  0  0
   12.9892    6.8440   -6.2415 H   0  0  0  0  0  0  0  0  0  0  0  0
   12.9702    8.4364   -6.9731 H   0  0  0  0  0  0  0  0  0  0  0  0
   14.3328    7.9505   -5.9622 H   0  0  0  0  0  0  0  0  0  0  0  0
   12.6108    7.2564   -9.2538 H   0  0  0  0  0  0  0  0  0  0  0  0
   12.7355    5.6719   -8.4954 H   0  0  0  0  0  0  0  0  0  0  0  0
   13.7947    6.0848   -9.8383 H   0  0  0  0  0  0  0  0  0  0  0  0
   14.3129    9.0613   -8.8325 H   0  0  0  0  0  0  0  0  0  0  0  0
   15.4747    7.9993   -9.6025 H   0  0  0  0  0  0  0  0  0  0  0  0
   15.8218    8.6880   -8.0100 H   0  0  0  0  0  0  0  0  0  0  0  0
   13.9107    4.8177   -6.4201 H   0  0  0  0  0  0  0  0  0  0  0  0
   15.4244    3.1065   -5.7272 H   0  0  0  0  0  0  0  0  0  0  0  0
   15.2345    0.5058   -7.9598 H   0  0  0  0  0  0  0  0  0  0  0  0
   15.2040   -1.2405   -8.1869 H   0  0  0  0  0  0  0  0  0  0  0  0
   13.7234    0.4029   -6.1093 H   0  0  0  0  0  0  0  0  0  0  0  0
   12.0653   -0.8210   -6.8081 H   0  0  0  0  0  0  0  0  0  0  0  0
   13.9877   -2.5509   -5.5675 H   0  0  0  0  0  0  0  0  0  0  0  0
   14.0968   -1.1708   -4.4808 H   0  0  0  0  0  0  0  0  0  0  0  0
   17.9819   -7.4309   -6.0036 H   0  0  0  0  0  0  0  0  0  0  0  0
   18.1503   -7.4290   -4.2297 H   0  0  0  0  0  0  0  0  0  0  0  0
   19.0107   -6.2139   -5.2222 H   0  0  0  0  0  0  0  0  0  0  0  0
  1  2  2  0  0  0  0
  2  3  1  0  0  0  0
  2 32  1  0  0  0  0
  4  3  1  0  0  0  0
  3 33  1  0  0  0  0
  4  5  1  0  0  0  0
  4 34  1  0  0  0  0
  4  9  1  0  0  0  0
  5  6  1  0  0  0  0
  5  7  1  0  0  0  0
  5  8  1  0  0  0  0
  6 35  1  0  0  0  0
  6 36  1  0  0  0  0
  6 37  1  0  0  0  0
  7 38  1  0  0  0  0
  7 39  1  0  0  0  0
  7 40  1  0  0  0  0
  8 41  1  0  0  0  0
  8 42  1  0  0  0  0
  8 43  1  0  0  0  0
  9 10  2  0  0  0  0
  9 11  1  0  0  0  0
 11 31  1  0  0  0  0
 12 11  1  0  0  0  0
 12 28  1  0  0  0  0
 12 44  1  0  0  0  0
 12 13  1  0  0  0  0
 13 14  2  0  0  0  0
 13 15  1  0  0  0  0
 15 45  1  0  0  0  0
 16 15  1  0  0  0  0
 16 46  1  0  0  0  0
 16 17  1  0  0  0  0
 16 18  1  0  0  0  0
 17 47  1  0  0  0  0
 17 48  1  0  0  0  0
 17 49  1  0  0  0  0
 18 19  1  0  0  0  0
 18 27  2  0  0  0  0
 19 50  1  0  0  0  0
 19 20  2  0  0  0  0
 20 51  1  0  0  0  0
 20 21  1  0  0  0  0
 21 22  1  0  0  0  0
 21 26  2  0  0  0  0
 22 23  1  0  0  0  0
 22 24  1  0  0  0  0
 22 25  1  0  0  0  0
 23 52  1  0  0  0  0
 23 53  1  0  0  0  0
 23 54  1  0  0  0  0
 24 55  1  0  0  0  0
 24 56  1  0  0  0  0
 24 57  1  0  0  0  0
 25 58  1  0  0  0  0
 25 59  1  0  0  0  0
 25 60  1  0  0  0  0
 26 61  1  0  0  0  0
 26 27  1  0  0  0  0
 27 62  1  0  0  0  0
 29 28  1  0  0  0  0
 28 63  1  0  0  0  0
 28 64  1  0  0  0  0
 29 31  1  0  0  0  0
 29 65  1  0  0  0  0
 29 30  1  0  0  0  0
 30 66  1  0  0  0  0
 31 67  1  0  0  0  0
 31 68  1  0  0  0  0
 32 69  1  0  0  0  0
 32 70  1  0  0  0  0
 32 71  1  0  0  0  0
M  ZZC   1 o1
M  ZZC   2 c1
M  ZZC   3 n1
M  ZZC   4 c2
M  ZZC   5 c3
M  ZZC   6 c4
M  ZZC   7 c5
M  ZZC   8 c6
M  ZZC   9 c7
M  ZZC  10 o2
M  ZZC  11 n2
M  ZZC  12 c8
M  ZZC  13 c9
M  ZZC  14 o3
M  ZZC  15 n3
M  ZZC  16 c10
M  ZZC  17 c11
M  ZZC  18 c12
M  ZZC  19 c13
M  ZZC  20 c14
M  ZZC  21 c15
M  ZZC  22 c16
M  ZZC  23 c17
M  ZZC  24 c18
M  ZZC  25 c19
M  ZZC  26 c20
M  ZZC  27 c21
M  ZZC  28 c22
M  ZZC  29 c23
M  ZZC  30 o4
M  ZZC  31 c24
M  ZZC  32 c25
M  ZZC  33 h11
M  ZZC  34 h21
M  ZZC  35 h41
M  ZZC  36 h42
M  ZZC  37 h43
M  ZZC  38 h51
M  ZZC  39 h52
M  ZZC  40 h53
M  ZZC  41 h61
M  ZZC  42 h62
M  ZZC  43 h63
M  ZZC  44 h81
M  ZZC  45 h31
M  ZZC  46 h101
M  ZZC  47 h111
M  ZZC  48 h112
M  ZZC  49 h113
M  ZZC  50 h131
M  ZZC  51 h141
M  ZZC  52 h171
M  ZZC  53 h172
M  ZZC  54 h173
M  ZZC  55 h181
M  ZZC  56 h182
M  ZZC  57 h183
M  ZZC  58 h191
M  ZZC  59 h192
M  ZZC  60 h193
M  ZZC  61 h201
M  ZZC  62 h211
M  ZZC  63 h221
M  ZZC  64 h222
M  ZZC  65 h231
M  ZZC  66 h01
M  ZZC  67 h241
M  ZZC  68 h242
M  ZZC  69 h251
M  ZZC  70 h252
M  ZZC  71 h253
M  ZZM   1 7
M  ZZI   1 81
M  ZZM   2 3
M  ZZI   2 121
M  ZZM   3 10
M  ZZI   3 211
M  ZZM   4 1
M  ZZI   4 113
M  ZZM   5 1
M  ZZI   5 110
M  ZZM   6 1
M  ZZI   6 111
M  ZZM   7 1
M  ZZI   7 111
M  ZZM   8 1
M  ZZI   8 111
M  ZZM   9 3
M  ZZI   9 121
M  ZZM  10 7
M  ZZI  10 81
M  ZZM  11 10
M  ZZI  11 192
M  ZZM  12 1
M  ZZI  12 113
M  ZZM  13 3
M  ZZI  13 121
M  ZZM  14 7
M  ZZI  14 81
M  ZZM  15 10
M  ZZI  15 211
M  ZZM  16 1
M  ZZI  16 113
M  ZZM  17 1
M  ZZI  17 111
M  ZZM  18 37
M  ZZI  18 124
M  ZZM  19 37
M  ZZI  19 125
M  ZZM  20 37
M  ZZI  20 125
M  ZZM  21 37
M  ZZI  21 124
M  ZZM  22 1
M  ZZI  22 110
M  ZZM  23 1
M  ZZI  23 111
M  ZZM  24 1
M  ZZI  24 111
M  ZZM  25 1
M  ZZI  25 111
M  ZZM  26 37
M  ZZI  26 125
M  ZZM  27 37
M  ZZI  27 125
M  ZZM  28 1
M  ZZI  28 112
M  ZZM  29 1
M  ZZI  29 113
M  ZZM  30 6
M  ZZI  30 60
M  ZZM  31 1
M  ZZI  31 112
M  ZZM  32 1
M  ZZI  32 111
M  ZZM  33 28
M  ZZI  33 11
M  ZZM  34 5
M  ZZI  34 1
M  ZZM  35 5
M  ZZI  35 1
M  ZZM  36 5
M  ZZI  36 1
M  ZZM  37 5
M  ZZI  37 1
M  ZZM  38 5
M  ZZI  38 1
M  ZZM  39 5
M  ZZI  39 1
M  ZZM  40 5
M  ZZI  40 1
M  ZZM  41 5
M  ZZI  41 1
M  ZZM  42 5
M  ZZI  42 1
M  ZZM  43 5
M  ZZI  43 1
M  ZZM  44 5
M  ZZI  44 1
M  ZZM  45 28
M  ZZI  45 11
M  ZZM  46 5
M  ZZI  46 1
M  ZZM  47 5
M  ZZI  47 1
M  ZZM  48 5
M  ZZI  48 1
M  ZZM  49 5
M  ZZI  49 1
M  ZZM  50 5
M  ZZI  50 1
M  ZZM  51 5
M  ZZI  51 1
M  ZZM  52 5
M  ZZI  52 1
M  ZZM  53 5
M  ZZI  53 1
M  ZZM  54 5
M  ZZI  54 1
M  ZZM  55 5
M  ZZI  55 1
M  ZZM  56 5
M  ZZI  56 1
M  ZZM  57 5
M  ZZI  57 1
M  ZZM  58 5
M  ZZI  58 1
M  ZZM  59 5
M  ZZI  59 1
M  ZZM  60 5
M  ZZI  60 1
M  ZZM  61 5
M  ZZI  61 1
M  ZZM  62 5
M  ZZI  62 1
M  ZZM  63 5
M  ZZI  63 1
M  ZZM  64 5
M  ZZI  64 1
M  ZZM  65 5
M  ZZI  65 1
M  ZZM  66 21
M  ZZI  66 20
M  ZZM  67 5
M  ZZI  67 1
M  ZZM  68 5
M  ZZI  68 1
M  ZZM  69 5
M  ZZI  69 1
M  ZZM  70 5
M  ZZI  70 1
M  ZZM  71 5
M  ZZI  71 1
M  END
> <IX>
1

> <NAME>
VHL_1ERR_33.pdb

> <Score>
-3.684811

> <Natom>
71

> <Nflex>
9

> <Hbond>
-4.991088

> <Hphob>
-6.739589

> <VwInt>
-27.50535

> <Dsolv>
20.929018

> <SolEl>
21.350727

> <Eintl>
9.625456

> <RecConf>
ND

> <projPath>
VHL_maps/

> <NAME_>
VHL_1ERR_33.pdb

$$$$
