VHL_4QNQ_4.pdb
  MOLSOFT 04032206403D

 68 70  0  0  1  0  0  0  0  0999 V2000
   11.7223   -0.1173   -6.5923 C   0  0  0  0  0  0  0  0  0  0  0  0
   13.0348   -0.8043   -6.3574 C   0  0  0  0  0  0  0  0  0  0  0  0
   13.2907   -1.8930   -6.8445 O   0  0  0  0  0  0  0  0  0  0  0  0
   13.8798   -0.0890   -5.5430 N   0  0  0  0  0  0  0  0  0  0  0  0
   15.2012   -0.5885   -5.1572 C   0  0  1  0  0  0  0  0  0  0  0  0
   16.2563    0.5570   -5.1259 C   0  0  0  0  0  0  0  0  0  0  0  0
   16.3574    1.1895   -6.5266 C   0  0  0  0  0  0  0  0  0  0  0  0
   15.9117    1.6649   -4.1140 C   0  0  0  0  0  0  0  0  0  0  0  0
   17.6376   -0.0009   -4.7697 C   0  0  0  0  0  0  0  0  0  0  0  0
   14.9882   -1.3157   -3.8141 C   0  0  0  0  0  0  0  0  0  0  0  0
   14.3310   -0.7997   -2.9183 O   0  0  0  0  0  0  0  0  0  0  0  0
   15.5441   -2.5890   -3.6577 N   0  0  0  0  0  0  0  0  0  0  0  0
   15.2775   -3.3687   -2.4573 C   0  0  2  0  0  0  0  0  0  0  0  0
   16.2373   -2.9884   -1.3252 C   0  0  0  0  0  0  0  0  0  0  0  0
   17.3973   -2.6545   -1.5253 O   0  0  0  0  0  0  0  0  0  0  0  0
   15.6856   -3.1083   -0.0604 N   0  0  0  0  0  0  0  0  0  0  0  0
   16.4217   -2.7301    1.1380 C   0  0  1  0  0  0  0  0  0  0  0  0
   16.3811   -1.2140    1.3363 C   0  0  0  0  0  0  0  0  0  0  0  0
   15.9181   -3.4844    2.3543 C   0  0  0  0  0  0  0  0  0  0  0  0
   14.7100   -3.1790    2.9819 C   0  0  0  0  0  0  0  0  0  0  0  0
   14.2725   -3.9004    4.0817 C   0  0  0  0  0  0  0  0  0  0  0  0
   15.0111   -4.9693    4.5819 C   0  0  0  0  0  0  0  0  0  0  0  0
   14.5296   -5.7645    5.7098 C   0  0  0  0  0  0  0  0  0  0  0  0
   13.2955   -6.3611    5.9572 C   0  0  0  0  0  0  0  0  0  0  0  0
   12.0954   -6.3727    5.0850 C   0  0  0  0  0  0  0  0  0  0  0  0
   13.2061   -7.0443    7.1543 N   0  0  0  0  0  0  0  0  0  0  0  0
   14.3479   -6.9693    7.7985 C   0  0  0  0  0  0  0  0  0  0  0  0
   15.5911   -6.0940    7.0273 S   0  0  0  0  0  0  0  0  0  0  0  0
   16.2206   -5.2678    3.9605 C   0  0  0  0  0  0  0  0  0  0  0  0
   16.6663   -4.5365    2.8733 C   0  0  0  0  0  0  0  0  0  0  0  0
   15.4871   -4.8062   -2.8954 C   0  0  0  0  0  0  0  0  0  0  0  0
   16.5637   -4.7179   -3.9661 C   0  0  1  0  0  0  0  0  0  0  0  0
   16.4163   -5.7699   -4.9226 O   0  0  0  0  0  0  0  0  0  0  0  0
   16.3659   -3.3414   -4.5965 C   0  0  0  0  0  0  0  0  0  0  0  0
   11.8966    0.8755   -7.0132 H   0  0  0  0  0  0  0  0  0  0  0  0
   11.1824   -0.0248   -5.6464 H   0  0  0  0  0  0  0  0  0  0  0  0
   11.1220   -0.7023   -7.2925 H   0  0  0  0  0  0  0  0  0  0  0  0
   13.5224    0.7456   -5.0916 H   0  0  0  0  0  0  0  0  0  0  0  0
   15.4978   -1.3175   -5.9162 H   0  0  0  0  0  0  0  0  0  0  0  0
   17.1461    1.9479   -6.5684 H   0  0  0  0  0  0  0  0  0  0  0  0
   15.4258    1.6816   -6.8235 H   0  0  0  0  0  0  0  0  0  0  0  0
   16.5884    0.4389   -7.2904 H   0  0  0  0  0  0  0  0  0  0  0  0
   16.6652    2.4592   -4.1303 H   0  0  0  0  0  0  0  0  0  0  0  0
   15.8763    1.2858   -3.0886 H   0  0  0  0  0  0  0  0  0  0  0  0
   14.9501    2.1399   -4.3290 H   0  0  0  0  0  0  0  0  0  0  0  0
   17.6546   -0.4475   -3.7707 H   0  0  0  0  0  0  0  0  0  0  0  0
   18.4032    0.7818   -4.7851 H   0  0  0  0  0  0  0  0  0  0  0  0
   17.9418   -0.7665   -5.4889 H   0  0  0  0  0  0  0  0  0  0  0  0
   14.2463   -3.1995   -2.1260 H   0  0  0  0  0  0  0  0  0  0  0  0
   14.7162   -3.3868    0.0420 H   0  0  0  0  0  0  0  0  0  0  0  0
   17.4709   -3.0007    0.9715 H   0  0  0  0  0  0  0  0  0  0  0  0
   16.8613   -0.6968    0.4998 H   0  0  0  0  0  0  0  0  0  0  0  0
   16.9013   -0.9195    2.2533 H   0  0  0  0  0  0  0  0  0  0  0  0
   15.3557   -0.8344    1.3938 H   0  0  0  0  0  0  0  0  0  0  0  0
   14.0880   -2.3674    2.6165 H   0  0  0  0  0  0  0  0  0  0  0  0
   13.3359   -3.6132    4.5487 H   0  0  0  0  0  0  0  0  0  0  0  0
   11.2120   -6.7034    5.6387 H   0  0  0  0  0  0  0  0  0  0  0  0
   12.2366   -7.0624    4.2492 H   0  0  0  0  0  0  0  0  0  0  0  0
   11.8714   -5.3830    4.6817 H   0  0  0  0  0  0  0  0  0  0  0  0
   14.5002   -7.4353    8.7616 H   0  0  0  0  0  0  0  0  0  0  0  0
   16.8294   -6.0987    4.3050 H   0  0  0  0  0  0  0  0  0  0  0  0
   17.6130   -4.8135    2.4176 H   0  0  0  0  0  0  0  0  0  0  0  0
   15.7788   -5.4730   -2.0803 H   0  0  0  0  0  0  0  0  0  0  0  0
   14.5641   -5.2112   -3.3210 H   0  0  0  0  0  0  0  0  0  0  0  0
   17.5615   -4.7904   -3.5265 H   0  0  0  0  0  0  0  0  0  0  0  0
   16.3398   -6.6102   -4.4343 H   0  0  0  0  0  0  0  0  0  0  0  0
   15.8944   -3.3792   -5.5800 H   0  0  0  0  0  0  0  0  0  0  0  0
   17.3254   -2.8324   -4.7158 H   0  0  0  0  0  0  0  0  0  0  0  0
  1 35  1  0  0  0  0
  1 36  1  0  0  0  0
  1 37  1  0  0  0  0
  1  2  1  0  0  0  0
  2  3  2  0  0  0  0
  2  4  1  0  0  0  0
  4 38  1  0  0  0  0
  5  4  1  0  0  0  0
  5 39  1  0  0  0  0
  5  6  1  0  0  0  0
  5 10  1  0  0  0  0
  6  7  1  0  0  0  0
  6  8  1  0  0  0  0
  6  9  1  0  0  0  0
  7 40  1  0  0  0  0
  7 41  1  0  0  0  0
  7 42  1  0  0  0  0
  8 43  1  0  0  0  0
  8 44  1  0  0  0  0
  8 45  1  0  0  0  0
  9 46  1  0  0  0  0
  9 47  1  0  0  0  0
  9 48  1  0  0  0  0
 10 11  2  0  0  0  0
 10 12  1  0  0  0  0
 12 34  1  0  0  0  0
 13 12  1  0  0  0  0
 13 31  1  0  0  0  0
 13 49  1  0  0  0  0
 13 14  1  0  0  0  0
 14 15  2  0  0  0  0
 14 16  1  0  0  0  0
 16 50  1  0  0  0  0
 17 16  1  0  0  0  0
 17 51  1  0  0  0  0
 17 18  1  0  0  0  0
 17 19  1  0  0  0  0
 18 52  1  0  0  0  0
 18 53  1  0  0  0  0
 18 54  1  0  0  0  0
 19 20  1  0  0  0  0
 19 30  2  0  0  0  0
 20 55  1  0  0  0  0
 20 21  2  0  0  0  0
 21 56  1  0  0  0  0
 21 22  1  0  0  0  0
 22 29  2  0  0  0  0
 22 23  1  0  0  0  0
 23 24  2  0  0  0  0
 23 28  1  0  0  0  0
 24 25  1  0  0  0  0
 24 26  1  0  0  0  0
 25 57  1  0  0  0  0
 25 58  1  0  0  0  0
 25 59  1  0  0  0  0
 26 27  2  0  0  0  0
 27 60  1  0  0  0  0
 27 28  1  0  0  0  0
 29 61  1  0  0  0  0
 29 30  1  0  0  0  0
 30 62  1  0  0  0  0
 32 31  1  0  0  0  0
 31 63  1  0  0  0  0
 31 64  1  0  0  0  0
 32 34  1  0  0  0  0
 32 65  1  0  0  0  0
 32 33  1  0  0  0  0
 33 66  1  0  0  0  0
 34 67  1  0  0  0  0
 34 68  1  0  0  0  0
M  ZZC   1 c1
M  ZZC   2 c2
M  ZZC   3 o1
M  ZZC   4 n1
M  ZZC   5 c3
M  ZZC   6 c4
M  ZZC   7 c5
M  ZZC   8 c6
M  ZZC   9 c7
M  ZZC  10 c8
M  ZZC  11 o2
M  ZZC  12 n2
M  ZZC  13 c9
M  ZZC  14 c10
M  ZZC  15 o3
M  ZZC  16 n3
M  ZZC  17 c11
M  ZZC  18 c12
M  ZZC  19 c13
M  ZZC  20 c14
M  ZZC  21 c15
M  ZZC  22 c16
M  ZZC  23 c17
M  ZZC  24 c18
M  ZZC  25 c19
M  ZZC  26 n4
M  ZZC  27 c20
M  ZZC  28 s1
M  ZZC  29 c21
M  ZZC  30 c22
M  ZZC  31 c23
M  ZZC  32 c24
M  ZZC  33 o4
M  ZZC  34 c25
M  ZZC  35 h11
M  ZZC  36 h12
M  ZZC  37 h13
M  ZZC  38 h01
M  ZZC  39 h31
M  ZZC  40 h51
M  ZZC  41 h52
M  ZZC  42 h53
M  ZZC  43 h61
M  ZZC  44 h62
M  ZZC  45 h63
M  ZZC  46 h71
M  ZZC  47 h72
M  ZZC  48 h73
M  ZZC  49 h91
M  ZZC  50 h02
M  ZZC  51 h111
M  ZZC  52 h121
M  ZZC  53 h122
M  ZZC  54 h123
M  ZZC  55 h141
M  ZZC  56 h151
M  ZZC  57 h191
M  ZZC  58 h192
M  ZZC  59 h193
M  ZZC  60 h201
M  ZZC  61 h211
M  ZZC  62 h221
M  ZZC  63 h231
M  ZZC  64 h232
M  ZZC  65 h241
M  ZZC  66 h41
M  ZZC  67 h251
M  ZZC  68 h252
M  ZZM   1 1
M  ZZI   1 111
M  ZZM   2 3
M  ZZI   2 121
M  ZZM   3 7
M  ZZI   3 81
M  ZZM   4 10
M  ZZI   4 211
M  ZZM   5 1
M  ZZI   5 113
M  ZZM   6 1
M  ZZI   6 110
M  ZZM   7 1
M  ZZI   7 111
M  ZZM   8 1
M  ZZI   8 111
M  ZZM   9 1
M  ZZI   9 111
M  ZZM  10 3
M  ZZI  10 121
M  ZZM  11 7
M  ZZI  11 81
M  ZZM  12 10
M  ZZI  12 192
M  ZZM  13 1
M  ZZI  13 113
M  ZZM  14 3
M  ZZI  14 121
M  ZZM  15 7
M  ZZI  15 81
M  ZZM  16 10
M  ZZI  16 211
M  ZZM  17 1
M  ZZI  17 113
M  ZZM  18 1
M  ZZI  18 111
M  ZZM  19 37
M  ZZI  19 124
M  ZZM  20 37
M  ZZI  20 125
M  ZZM  21 37
M  ZZI  21 125
M  ZZM  22 37
M  ZZI  22 124
M  ZZM  23 63
M  ZZI  23 104
M  ZZM  24 64
M  ZZI  24 105
M  ZZM  25 1
M  ZZI  25 111
M  ZZM  26 66
M  ZZI  26 222
M  ZZM  27 63
M  ZZI  27 104
M  ZZM  28 44
M  ZZI  28 248
M  ZZM  29 37
M  ZZI  29 125
M  ZZM  30 37
M  ZZI  30 125
M  ZZM  31 1
M  ZZI  31 112
M  ZZM  32 1
M  ZZI  32 113
M  ZZM  33 6
M  ZZI  33 60
M  ZZM  34 1
M  ZZI  34 112
M  ZZM  35 5
M  ZZI  35 1
M  ZZM  36 5
M  ZZI  36 1
M  ZZM  37 5
M  ZZI  37 1
M  ZZM  38 28
M  ZZI  38 11
M  ZZM  39 5
M  ZZI  39 1
M  ZZM  40 5
M  ZZI  40 1
M  ZZM  41 5
M  ZZI  41 1
M  ZZM  42 5
M  ZZI  42 1
M  ZZM  43 5
M  ZZI  43 1
M  ZZM  44 5
M  ZZI  44 1
M  ZZM  45 5
M  ZZI  45 1
M  ZZM  46 5
M  ZZI  46 1
M  ZZM  47 5
M  ZZI  47 1
M  ZZM  48 5
M  ZZI  48 1
M  ZZM  49 5
M  ZZI  49 1
M  ZZM  50 28
M  ZZI  50 11
M  ZZM  51 5
M  ZZI  51 1
M  ZZM  52 5
M  ZZI  52 1
M  ZZM  53 5
M  ZZI  53 1
M  ZZM  54 5
M  ZZI  54 1
M  ZZM  55 5
M  ZZI  55 1
M  ZZM  56 5
M  ZZI  56 1
M  ZZM  57 5
M  ZZI  57 1
M  ZZM  58 5
M  ZZI  58 1
M  ZZM  59 5
M  ZZI  59 1
M  ZZM  60 5
M  ZZI  60 1
M  ZZM  61 5
M  ZZI  61 1
M  ZZM  62 5
M  ZZI  62 1
M  ZZM  63 5
M  ZZI  63 1
M  ZZM  64 5
M  ZZI  64 1
M  ZZM  65 5
M  ZZI  65 1
M  ZZM  66 21
M  ZZI  66 20
M  ZZM  67 5
M  ZZI  67 1
M  ZZM  68 5
M  ZZI  68 1
M  END
> <IX>
1

> <NAME>
VHL_4QNQ_4.pdb

> <Score>
-12.262692

> <Natom>
68

> <Nflex>
8

> <Hbond>
-2.963007

> <Hphob>
-5.909618

> <VwInt>
-28.057053

> <Dsolv>
18.423497

> <SolEl>
10.15825

> <Eintl>
3.213576

> <RecConf>
ND

> <projPath>
VHL_maps/

> <NAME_>
VHL_4QNQ_4.pdb

$$$$
