VHL_1ERR_23.pdb
  MOLSOFT 04032206363D

 68 70  0  0  1  0  0  0  0  0999 V2000
   15.8070   -6.2197   -5.4624 O   0  0  0  0  0  0  0  0  0  0  0  0
   16.8895   -5.8974   -5.0044 C   0  0  0  0  0  0  0  0  0  0  0  0
   17.1453   -4.7252   -4.3204 N   0  0  0  0  0  0  0  0  0  0  0  0
   16.1648   -3.6536   -4.0797 C   0  0  1  0  0  0  0  0  0  0  0  0
   15.8555   -3.4835   -2.5629 C   0  0  0  0  0  0  0  0  0  0  0  0
   14.7409   -2.4637   -2.3036 C   0  0  0  0  0  0  0  0  0  0  0  0
   15.3589   -4.8295   -2.0207 C   0  0  0  0  0  0  0  0  0  0  0  0
   17.0858   -3.0355   -1.7610 C   0  0  0  0  0  0  0  0  0  0  0  0
   16.7602   -2.4262   -4.7976 C   0  0  0  0  0  0  0  0  0  0  0  0
   17.9679   -2.2213   -4.7861 O   0  0  0  0  0  0  0  0  0  0  0  0
   15.8963   -1.5742   -5.4904 N   0  0  0  0  0  0  0  0  0  0  0  0
   16.4264   -0.6138   -6.4456 C   0  0  2  0  0  0  0  0  0  0  0  0
   16.9214    0.6658   -5.7679 C   0  0  0  0  0  0  0  0  0  0  0  0
   16.5314    1.0241   -4.6648 O   0  0  0  0  0  0  0  0  0  0  0  0
   17.8168    1.3817   -6.5460 N   0  0  0  0  0  0  0  0  0  0  0  0
   18.4252    2.6315   -6.1095 C   0  0  1  0  0  0  0  0  0  0  0  0
   19.8032    2.7964   -6.7557 C   0  0  0  0  0  0  0  0  0  0  0  0
   17.4981    3.8134   -6.3485 C   0  0  0  0  0  0  0  0  0  0  0  0
   16.5398    4.1450   -5.3918 C   0  0  0  0  0  0  0  0  0  0  0  0
   15.6585    5.1949   -5.5803 C   0  0  0  0  0  0  0  0  0  0  0  0
   15.7086    5.9591   -6.7383 C   0  0  0  0  0  0  0  0  0  0  0  0
   14.7761    7.0535   -6.9585 C   0  0  0  0  0  0  0  0  0  0  0  0
   13.8284    7.2317   -7.9551 C   0  0  0  0  0  0  0  0  0  0  0  0
   13.5068    6.2815   -9.0414 C   0  0  0  0  0  0  0  0  0  0  0  0
   13.1337    8.4224   -7.8963 N   0  0  0  0  0  0  0  0  0  0  0  0
   13.5455    9.1203   -6.8614 C   0  0  0  0  0  0  0  0  0  0  0  0
   14.7586    8.4060   -5.8974 S   0  0  0  0  0  0  0  0  0  0  0  0
   16.6629    5.6440   -7.6972 C   0  0  0  0  0  0  0  0  0  0  0  0
   17.5421    4.5917   -7.5057 C   0  0  0  0  0  0  0  0  0  0  0  0
   15.2674   -0.3554   -7.3952 C   0  0  0  0  0  0  0  0  0  0  0  0
   14.0358   -0.5074   -6.5186 C   0  0  1  0  0  0  0  0  0  0  0  0
   12.9345   -0.9909   -7.2854 O   0  0  0  0  0  0  0  0  0  0  0  0
   14.4458   -1.5246   -5.4630 C   0  0  0  0  0  0  0  0  0  0  0  0
   18.0860   -6.7997   -5.1238 C   0  0  0  0  0  0  0  0  0  0  0  0
   18.1048   -4.5445   -4.0480 H   0  0  0  0  0  0  0  0  0  0  0  0
   15.2422   -3.9438   -4.5799 H   0  0  0  0  0  0  0  0  0  0  0  0
   13.8329   -2.7153   -2.8602 H   0  0  0  0  0  0  0  0  0  0  0  0
   15.0518   -1.4501   -2.5707 H   0  0  0  0  0  0  0  0  0  0  0  0
   14.4658   -2.4336   -1.2441 H   0  0  0  0  0  0  0  0  0  0  0  0
   16.1236   -5.6050   -2.0961 H   0  0  0  0  0  0  0  0  0  0  0  0
   14.4815   -5.1857   -2.5700 H   0  0  0  0  0  0  0  0  0  0  0  0
   15.0747   -4.7485   -0.9693 H   0  0  0  0  0  0  0  0  0  0  0  0
   17.4417   -2.0581   -2.0804 H   0  0  0  0  0  0  0  0  0  0  0  0
   17.9192   -3.7347   -1.8844 H   0  0  0  0  0  0  0  0  0  0  0  0
   16.8722   -2.9730   -0.6894 H   0  0  0  0  0  0  0  0  0  0  0  0
   17.2689   -1.0598   -6.9787 H   0  0  0  0  0  0  0  0  0  0  0  0
   18.1110    0.9888   -7.4351 H   0  0  0  0  0  0  0  0  0  0  0  0
   18.5923    2.5490   -5.0291 H   0  0  0  0  0  0  0  0  0  0  0  0
   20.2884    3.7123   -6.4126 H   0  0  0  0  0  0  0  0  0  0  0  0
   19.7316    2.8425   -7.8469 H   0  0  0  0  0  0  0  0  0  0  0  0
   20.4857    1.9836   -6.4955 H   0  0  0  0  0  0  0  0  0  0  0  0
   16.4658    3.5712   -4.4726 H   0  0  0  0  0  0  0  0  0  0  0  0
   14.9174    5.4030   -4.8137 H   0  0  0  0  0  0  0  0  0  0  0  0
   14.2911    6.2859   -9.8021 H   0  0  0  0  0  0  0  0  0  0  0  0
   12.5650    6.5479   -9.5230 H   0  0  0  0  0  0  0  0  0  0  0  0
   13.4026    5.2623   -8.6575 H   0  0  0  0  0  0  0  0  0  0  0  0
   13.1462   10.0947   -6.6227 H   0  0  0  0  0  0  0  0  0  0  0  0
   16.7339    6.2294   -8.6102 H   0  0  0  0  0  0  0  0  0  0  0  0
   18.2712    4.3932   -8.2826 H   0  0  0  0  0  0  0  0  0  0  0  0
   15.3057    0.6260   -7.8797 H   0  0  0  0  0  0  0  0  0  0  0  0
   15.2547   -1.1063   -8.1939 H   0  0  0  0  0  0  0  0  0  0  0  0
   13.7656    0.4537   -6.0651 H   0  0  0  0  0  0  0  0  0  0  0  0
   12.1136   -0.7184   -6.8385 H   0  0  0  0  0  0  0  0  0  0  0  0
   14.0206   -2.5159   -5.6185 H   0  0  0  0  0  0  0  0  0  0  0  0
   14.1168   -1.1728   -4.4858 H   0  0  0  0  0  0  0  0  0  0  0  0
   18.0011   -7.4518   -5.9985 H   0  0  0  0  0  0  0  0  0  0  0  0
   18.1600   -7.4267   -4.2302 H   0  0  0  0  0  0  0  0  0  0  0  0
   18.9857   -6.1858   -5.2080 H   0  0  0  0  0  0  0  0  0  0  0  0
  1  2  2  0  0  0  0
  2  3  1  0  0  0  0
  2 34  1  0  0  0  0
  4  3  1  0  0  0  0
  3 35  1  0  0  0  0
  4  5  1  0  0  0  0
  4 36  1  0  0  0  0
  4  9  1  0  0  0  0
  5  6  1  0  0  0  0
  5  7  1  0  0  0  0
  5  8  1  0  0  0  0
  6 37  1  0  0  0  0
  6 38  1  0  0  0  0
  6 39  1  0  0  0  0
  7 40  1  0  0  0  0
  7 41  1  0  0  0  0
  7 42  1  0  0  0  0
  8 43  1  0  0  0  0
  8 44  1  0  0  0  0
  8 45  1  0  0  0  0
  9 10  2  0  0  0  0
  9 11  1  0  0  0  0
 11 33  1  0  0  0  0
 12 11  1  0  0  0  0
 12 30  1  0  0  0  0
 12 46  1  0  0  0  0
 12 13  1  0  0  0  0
 13 14  2  0  0  0  0
 13 15  1  0  0  0  0
 15 47  1  0  0  0  0
 16 15  1  0  0  0  0
 16 48  1  0  0  0  0
 16 17  1  0  0  0  0
 16 18  1  0  0  0  0
 17 49  1  0  0  0  0
 17 50  1  0  0  0  0
 17 51  1  0  0  0  0
 18 19  1  0  0  0  0
 18 29  2  0  0  0  0
 19 52  1  0  0  0  0
 19 20  2  0  0  0  0
 20 53  1  0  0  0  0
 20 21  1  0  0  0  0
 21 28  2  0  0  0  0
 21 22  1  0  0  0  0
 22 23  2  0  0  0  0
 22 27  1  0  0  0  0
 23 24  1  0  0  0  0
 23 25  1  0  0  0  0
 24 54  1  0  0  0  0
 24 55  1  0  0  0  0
 24 56  1  0  0  0  0
 25 26  2  0  0  0  0
 26 57  1  0  0  0  0
 26 27  1  0  0  0  0
 28 58  1  0  0  0  0
 28 29  1  0  0  0  0
 29 59  1  0  0  0  0
 31 30  1  0  0  0  0
 30 60  1  0  0  0  0
 30 61  1  0  0  0  0
 31 33  1  0  0  0  0
 31 62  1  0  0  0  0
 31 32  1  0  0  0  0
 32 63  1  0  0  0  0
 33 64  1  0  0  0  0
 33 65  1  0  0  0  0
 34 66  1  0  0  0  0
 34 67  1  0  0  0  0
 34 68  1  0  0  0  0
M  ZZC   1 o1
M  ZZC   2 c1
M  ZZC   3 n1
M  ZZC   4 c2
M  ZZC   5 c3
M  ZZC   6 c4
M  ZZC   7 c5
M  ZZC   8 c6
M  ZZC   9 c7
M  ZZC  10 o2
M  ZZC  11 n2
M  ZZC  12 c8
M  ZZC  13 c9
M  ZZC  14 o3
M  ZZC  15 n3
M  ZZC  16 c10
M  ZZC  17 c11
M  ZZC  18 c12
M  ZZC  19 c13
M  ZZC  20 c14
M  ZZC  21 c15
M  ZZC  22 c16
M  ZZC  23 c17
M  ZZC  24 c18
M  ZZC  25 n4
M  ZZC  26 c19
M  ZZC  27 s1
M  ZZC  28 c20
M  ZZC  29 c21
M  ZZC  30 c22
M  ZZC  31 c23
M  ZZC  32 o4
M  ZZC  33 c24
M  ZZC  34 c25
M  ZZC  35 h11
M  ZZC  36 h21
M  ZZC  37 h41
M  ZZC  38 h42
M  ZZC  39 h43
M  ZZC  40 h51
M  ZZC  41 h52
M  ZZC  42 h53
M  ZZC  43 h61
M  ZZC  44 h62
M  ZZC  45 h63
M  ZZC  46 h81
M  ZZC  47 h31
M  ZZC  48 h101
M  ZZC  49 h111
M  ZZC  50 h112
M  ZZC  51 h113
M  ZZC  52 h131
M  ZZC  53 h141
M  ZZC  54 h181
M  ZZC  55 h182
M  ZZC  56 h183
M  ZZC  57 h191
M  ZZC  58 h201
M  ZZC  59 h211
M  ZZC  60 h221
M  ZZC  61 h222
M  ZZC  62 h231
M  ZZC  63 h01
M  ZZC  64 h241
M  ZZC  65 h242
M  ZZC  66 h251
M  ZZC  67 h252
M  ZZC  68 h253
M  ZZM   1 7
M  ZZI   1 81
M  ZZM   2 3
M  ZZI   2 121
M  ZZM   3 10
M  ZZI   3 211
M  ZZM   4 1
M  ZZI   4 113
M  ZZM   5 1
M  ZZI   5 110
M  ZZM   6 1
M  ZZI   6 111
M  ZZM   7 1
M  ZZI   7 111
M  ZZM   8 1
M  ZZI   8 111
M  ZZM   9 3
M  ZZI   9 121
M  ZZM  10 7
M  ZZI  10 81
M  ZZM  11 10
M  ZZI  11 192
M  ZZM  12 1
M  ZZI  12 113
M  ZZM  13 3
M  ZZI  13 121
M  ZZM  14 7
M  ZZI  14 81
M  ZZM  15 10
M  ZZI  15 211
M  ZZM  16 1
M  ZZI  16 113
M  ZZM  17 1
M  ZZI  17 111
M  ZZM  18 37
M  ZZI  18 124
M  ZZM  19 37
M  ZZI  19 125
M  ZZM  20 37
M  ZZI  20 125
M  ZZM  21 37
M  ZZI  21 124
M  ZZM  22 63
M  ZZI  22 104
M  ZZM  23 64
M  ZZI  23 105
M  ZZM  24 1
M  ZZI  24 111
M  ZZM  25 66
M  ZZI  25 222
M  ZZM  26 63
M  ZZI  26 104
M  ZZM  27 44
M  ZZI  27 248
M  ZZM  28 37
M  ZZI  28 125
M  ZZM  29 37
M  ZZI  29 125
M  ZZM  30 1
M  ZZI  30 112
M  ZZM  31 1
M  ZZI  31 113
M  ZZM  32 6
M  ZZI  32 60
M  ZZM  33 1
M  ZZI  33 112
M  ZZM  34 1
M  ZZI  34 111
M  ZZM  35 28
M  ZZI  35 11
M  ZZM  36 5
M  ZZI  36 1
M  ZZM  37 5
M  ZZI  37 1
M  ZZM  38 5
M  ZZI  38 1
M  ZZM  39 5
M  ZZI  39 1
M  ZZM  40 5
M  ZZI  40 1
M  ZZM  41 5
M  ZZI  41 1
M  ZZM  42 5
M  ZZI  42 1
M  ZZM  43 5
M  ZZI  43 1
M  ZZM  44 5
M  ZZI  44 1
M  ZZM  45 5
M  ZZI  45 1
M  ZZM  46 5
M  ZZI  46 1
M  ZZM  47 28
M  ZZI  47 11
M  ZZM  48 5
M  ZZI  48 1
M  ZZM  49 5
M  ZZI  49 1
M  ZZM  50 5
M  ZZI  50 1
M  ZZM  51 5
M  ZZI  51 1
M  ZZM  52 5
M  ZZI  52 1
M  ZZM  53 5
M  ZZI  53 1
M  ZZM  54 5
M  ZZI  54 1
M  ZZM  55 5
M  ZZI  55 1
M  ZZM  56 5
M  ZZI  56 1
M  ZZM  57 5
M  ZZI  57 1
M  ZZM  58 5
M  ZZI  58 1
M  ZZM  59 5
M  ZZI  59 1
M  ZZM  60 5
M  ZZI  60 1
M  ZZM  61 5
M  ZZI  61 1
M  ZZM  62 5
M  ZZI  62 1
M  ZZM  63 21
M  ZZI  63 20
M  ZZM  64 5
M  ZZI  64 1
M  ZZM  65 5
M  ZZI  65 1
M  ZZM  66 5
M  ZZI  66 1
M  ZZM  67 5
M  ZZI  67 1
M  ZZM  68 5
M  ZZI  68 1
M  END
> <IX>
1

> <NAME>
VHL_1ERR_23.pdb

> <Score>
-3.181823

> <Natom>
68

> <Nflex>
8

> <Hbond>
-5.025425

> <Hphob>
-6.868283

> <VwInt>
-28.153457

> <Dsolv>
22.969729

> <SolEl>
23.176138

> <Eintl>
8.273601

> <RecConf>
ND

> <projPath>
VHL_maps/

> <NAME_>
VHL_1ERR_23.pdb

$$$$
