VHL_5F1H_2.pdb
  MOLSOFT 04032206423D

 70 73  0  0  1  0  0  0  0  0999 V2000
   18.7452   -5.3899   -5.9371 F   0  0  0  0  0  0  0  0  0  0  0  0
   17.7018   -5.9690   -5.2205 C   0  0  0  0  0  0  0  0  0  0  0  0
   16.8225   -5.0253   -4.4641 C   0  0  0  0  0  0  0  0  0  0  0  0
   15.7533   -5.3873   -3.9948 O   0  0  0  0  0  0  0  0  0  0  0  0
   17.3031   -3.7355   -4.3696 N   0  0  0  0  0  0  0  0  0  0  0  0
   16.4627   -2.6127   -3.9335 C   0  0  1  0  0  0  0  0  0  0  0  0
   16.6678   -2.1738   -2.4507 C   0  0  0  0  0  0  0  0  0  0  0  0
   16.4445   -3.3677   -1.5082 C   0  0  0  0  0  0  0  0  0  0  0  0
   18.0696   -1.6054   -2.1932 C   0  0  0  0  0  0  0  0  0  0  0  0
   15.6409   -1.0964   -2.0688 C   0  0  0  0  0  0  0  0  0  0  0  0
   16.7440   -1.5072   -4.9725 C   0  0  0  0  0  0  0  0  0  0  0  0
   17.8942   -1.1931   -5.2559 O   0  0  0  0  0  0  0  0  0  0  0  0
   15.6417   -0.9374   -5.6122 N   0  0  0  0  0  0  0  0  0  0  0  0
   15.8044   -0.0958   -6.7920 C   0  0  2  0  0  0  0  0  0  0  0  0
   16.1172    1.3606   -6.4283 C   0  0  0  0  0  0  0  0  0  0  0  0
   15.3117    2.0996   -5.8782 O   0  0  0  0  0  0  0  0  0  0  0  0
   17.4051    1.7401   -6.7524 N   0  0  0  0  0  0  0  0  0  0  0  0
   17.9316    3.0624   -6.4592 C   0  0  0  0  0  0  0  0  0  0  0  0
   19.3327    3.2949   -6.9828 C   0  0  0  0  0  0  0  0  0  0  0  0
   20.2804    2.2809   -7.0376 C   0  0  0  0  0  0  0  0  0  0  0  0
   19.9390    1.0192   -6.6083 O   0  0  0  0  0  0  0  0  0  0  0  0
   21.5650    2.4842   -7.4971 C   0  0  0  0  0  0  0  0  0  0  0  0
   21.9699    3.7460   -7.8929 C   0  0  0  0  0  0  0  0  0  0  0  0
   23.3447    3.9462   -8.3192 C   0  0  0  0  0  0  0  0  0  0  0  0
   24.4777    4.2479   -7.5775 C   0  0  0  0  0  0  0  0  0  0  0  0
   24.5415    4.5060   -6.1209 C   0  0  0  0  0  0  0  0  0  0  0  0
   25.6544    4.2823   -8.2985 N   0  0  0  0  0  0  0  0  0  0  0  0
   25.4049    4.0269   -9.5634 C   0  0  0  0  0  0  0  0  0  0  0  0
   23.7721    3.7394   -9.9690 S   0  0  0  0  0  0  0  0  0  0  0  0
   21.0465    4.7851   -7.8382 C   0  0  0  0  0  0  0  0  0  0  0  0
   19.7477    4.5619   -7.3924 C   0  0  0  0  0  0  0  0  0  0  0  0
   14.4696   -0.2226   -7.5069 C   0  0  0  0  0  0  0  0  0  0  0  0
   13.4570   -0.4423   -6.3944 C   0  0  1  0  0  0  0  0  0  0  0  0
   12.3365   -1.2026   -6.8487 O   0  0  0  0  0  0  0  0  0  0  0  0
   14.2407   -1.2378   -5.3665 C   0  0  0  0  0  0  0  0  0  0  0  0
   17.1213   -7.2067   -5.8671 C   0  0  0  0  0  0  0  0  0  0  0  0
   18.0074   -7.3359   -4.6736 C   0  0  0  0  0  0  0  0  0  0  0  0
   18.2277   -3.5403   -4.7471 H   0  0  0  0  0  0  0  0  0  0  0  0
   15.4303   -2.9537   -4.0355 H   0  0  0  0  0  0  0  0  0  0  0  0
   16.5131   -3.0680   -0.4575 H   0  0  0  0  0  0  0  0  0  0  0  0
   17.1887   -4.1517   -1.6618 H   0  0  0  0  0  0  0  0  0  0  0  0
   15.4550   -3.8145   -1.6526 H   0  0  0  0  0  0  0  0  0  0  0  0
   18.2244   -1.3865   -1.1319 H   0  0  0  0  0  0  0  0  0  0  0  0
   18.2425   -0.6718   -2.7365 H   0  0  0  0  0  0  0  0  0  0  0  0
   18.8427   -2.3129   -2.4903 H   0  0  0  0  0  0  0  0  0  0  0  0
   15.7471   -0.2041   -2.6945 H   0  0  0  0  0  0  0  0  0  0  0  0
   15.7668   -0.7740   -1.0300 H   0  0  0  0  0  0  0  0  0  0  0  0
   14.6125   -1.4503   -2.1901 H   0  0  0  0  0  0  0  0  0  0  0  0
   16.6089   -0.4949   -7.4213 H   0  0  0  0  0  0  0  0  0  0  0  0
   18.0588    1.0311   -7.0799 H   0  0  0  0  0  0  0  0  0  0  0  0
   17.2362    3.7906   -6.8914 H   0  0  0  0  0  0  0  0  0  0  0  0
   17.9186    3.1958   -5.3721 H   0  0  0  0  0  0  0  0  0  0  0  0
   20.3810    0.3909   -7.2073 H   0  0  0  0  0  0  0  0  0  0  0  0
   22.2586    1.6527   -7.5329 H   0  0  0  0  0  0  0  0  0  0  0  0
   23.9575    5.3927   -5.8584 H   0  0  0  0  0  0  0  0  0  0  0  0
   25.5723    4.6717   -5.7944 H   0  0  0  0  0  0  0  0  0  0  0  0
   24.1488    3.6559   -5.5573 H   0  0  0  0  0  0  0  0  0  0  0  0
   26.1832    3.9992  -10.3125 H   0  0  0  0  0  0  0  0  0  0  0  0
   21.3362    5.7864   -8.1434 H   0  0  0  0  0  0  0  0  0  0  0  0
   19.0539    5.3972   -7.3620 H   0  0  0  0  0  0  0  0  0  0  0  0
   14.2180    0.6383   -8.1354 H   0  0  0  0  0  0  0  0  0  0  0  0
   14.4996   -1.1055   -8.1525 H   0  0  0  0  0  0  0  0  0  0  0  0
   13.1022    0.5052   -5.9743 H   0  0  0  0  0  0  0  0  0  0  0  0
   11.8719   -0.6870   -7.5333 H   0  0  0  0  0  0  0  0  0  0  0  0
   14.0705   -2.3133   -5.4734 H   0  0  0  0  0  0  0  0  0  0  0  0
   13.9671   -0.9538   -4.3477 H   0  0  0  0  0  0  0  0  0  0  0  0
   16.0719   -7.4251   -5.7364 H   0  0  0  0  0  0  0  0  0  0  0  0
   17.5292   -7.5465   -6.8077 H   0  0  0  0  0  0  0  0  0  0  0  0
   18.9986   -7.7323   -4.8459 H   0  0  0  0  0  0  0  0  0  0  0  0
   17.5482   -7.6367   -3.7424 H   0  0  0  0  0  0  0  0  0  0  0  0
  2  1  1  0  0  0  0
  2 36  1  0  0  0  0
  2  3  1  0  0  0  0
  2 37  1  0  0  0  0
  3  4  2  0  0  0  0
  3  5  1  0  0  0  0
  5 38  1  0  0  0  0
  6  5  1  0  0  0  0
  6 39  1  0  0  0  0
  6  7  1  0  0  0  0
  6 11  1  0  0  0  0
  7  8  1  0  0  0  0
  7  9  1  0  0  0  0
  7 10  1  0  0  0  0
  8 40  1  0  0  0  0
  8 41  1  0  0  0  0
  8 42  1  0  0  0  0
  9 43  1  0  0  0  0
  9 44  1  0  0  0  0
  9 45  1  0  0  0  0
 10 46  1  0  0  0  0
 10 47  1  0  0  0  0
 10 48  1  0  0  0  0
 11 12  2  0  0  0  0
 11 13  1  0  0  0  0
 13 35  1  0  0  0  0
 14 13  1  0  0  0  0
 14 32  1  0  0  0  0
 14 49  1  0  0  0  0
 14 15  1  0  0  0  0
 15 16  2  0  0  0  0
 15 17  1  0  0  0  0
 17 50  1  0  0  0  0
 17 18  1  0  0  0  0
 18 51  1  0  0  0  0
 18 52  1  0  0  0  0
 18 19  1  0  0  0  0
 19 20  2  0  0  0  0
 19 31  1  0  0  0  0
 20 21  1  0  0  0  0
 20 22  1  0  0  0  0
 21 53  1  0  0  0  0
 22 54  1  0  0  0  0
 22 23  2  0  0  0  0
 23 30  1  0  0  0  0
 23 24  1  0  0  0  0
 24 25  2  0  0  0  0
 24 29  1  0  0  0  0
 25 26  1  0  0  0  0
 25 27  1  0  0  0  0
 26 55  1  0  0  0  0
 26 56  1  0  0  0  0
 26 57  1  0  0  0  0
 27 28  2  0  0  0  0
 28 58  1  0  0  0  0
 28 29  1  0  0  0  0
 30 59  1  0  0  0  0
 30 31  2  0  0  0  0
 31 60  1  0  0  0  0
 33 32  1  0  0  0  0
 32 61  1  0  0  0  0
 32 62  1  0  0  0  0
 33 35  1  0  0  0  0
 33 63  1  0  0  0  0
 33 34  1  0  0  0  0
 34 64  1  0  0  0  0
 35 65  1  0  0  0  0
 35 66  1  0  0  0  0
 36 67  1  0  0  0  0
 36 68  1  0  0  0  0
 36 37  1  0  0  0  0
 37 69  1  0  0  0  0
 37 70  1  0  0  0  0
M  ZZC   1 f1
M  ZZC   2 c1
M  ZZC   3 c2
M  ZZC   4 o1
M  ZZC   5 n1
M  ZZC   6 c3
M  ZZC   7 c4
M  ZZC   8 c5
M  ZZC   9 c6
M  ZZC  10 c7
M  ZZC  11 c8
M  ZZC  12 o2
M  ZZC  13 n2
M  ZZC  14 c9
M  ZZC  15 c10
M  ZZC  16 o3
M  ZZC  17 n3
M  ZZC  18 c11
M  ZZC  19 c12
M  ZZC  20 c13
M  ZZC  21 o4
M  ZZC  22 c14
M  ZZC  23 c15
M  ZZC  24 c16
M  ZZC  25 c17
M  ZZC  26 c18
M  ZZC  27 n4
M  ZZC  28 c19
M  ZZC  29 s1
M  ZZC  30 c20
M  ZZC  31 c21
M  ZZC  32 c22
M  ZZC  33 c23
M  ZZC  34 o5
M  ZZC  35 c24
M  ZZC  36 c25
M  ZZC  37 c26
M  ZZC  38 h11
M  ZZC  39 h31
M  ZZC  40 h51
M  ZZC  41 h52
M  ZZC  42 h53
M  ZZC  43 h61
M  ZZC  44 h62
M  ZZC  45 h63
M  ZZC  46 h71
M  ZZC  47 h72
M  ZZC  48 h73
M  ZZC  49 h91
M  ZZC  50 h01
M  ZZC  51 h111
M  ZZC  52 h112
M  ZZC  53 h41
M  ZZC  54 h141
M  ZZC  55 h181
M  ZZC  56 h182
M  ZZC  57 h183
M  ZZC  58 h191
M  ZZC  59 h201
M  ZZC  60 h211
M  ZZC  61 h221
M  ZZC  62 h222
M  ZZC  63 h231
M  ZZC  64 h02
M  ZZC  65 h241
M  ZZC  66 h242
M  ZZC  67 h251
M  ZZC  68 h252
M  ZZC  69 h261
M  ZZC  70 h262
M  ZZM   1 11
M  ZZI   1 90
M  ZZM   2 22
M  ZZI   2 109
M  ZZM   3 3
M  ZZI   3 121
M  ZZM   4 7
M  ZZI   4 81
M  ZZM   5 10
M  ZZI   5 211
M  ZZM   6 1
M  ZZI   6 113
M  ZZM   7 1
M  ZZI   7 110
M  ZZM   8 1
M  ZZI   8 111
M  ZZM   9 1
M  ZZI   9 111
M  ZZM  10 1
M  ZZI  10 111
M  ZZM  11 3
M  ZZI  11 121
M  ZZM  12 7
M  ZZI  12 81
M  ZZM  13 10
M  ZZI  13 192
M  ZZM  14 1
M  ZZI  14 113
M  ZZM  15 3
M  ZZI  15 121
M  ZZM  16 7
M  ZZI  16 81
M  ZZM  17 10
M  ZZI  17 211
M  ZZM  18 1
M  ZZI  18 112
M  ZZM  19 37
M  ZZI  19 124
M  ZZM  20 37
M  ZZI  20 124
M  ZZM  21 6
M  ZZI  21 62
M  ZZM  22 37
M  ZZI  22 125
M  ZZM  23 37
M  ZZI  23 124
M  ZZM  24 63
M  ZZI  24 104
M  ZZM  25 64
M  ZZI  25 105
M  ZZM  26 1
M  ZZI  26 111
M  ZZM  27 66
M  ZZI  27 222
M  ZZM  28 63
M  ZZI  28 104
M  ZZM  29 44
M  ZZI  29 248
M  ZZM  30 37
M  ZZI  30 125
M  ZZM  31 37
M  ZZI  31 125
M  ZZM  32 1
M  ZZI  32 112
M  ZZM  33 1
M  ZZI  33 113
M  ZZM  34 6
M  ZZI  34 60
M  ZZM  35 1
M  ZZI  35 112
M  ZZM  36 22
M  ZZI  36 109
M  ZZM  37 22
M  ZZI  37 109
M  ZZM  38 28
M  ZZI  38 11
M  ZZM  39 5
M  ZZI  39 1
M  ZZM  40 5
M  ZZI  40 1
M  ZZM  41 5
M  ZZI  41 1
M  ZZM  42 5
M  ZZI  42 1
M  ZZM  43 5
M  ZZI  43 1
M  ZZM  44 5
M  ZZI  44 1
M  ZZM  45 5
M  ZZI  45 1
M  ZZM  46 5
M  ZZI  46 1
M  ZZM  47 5
M  ZZI  47 1
M  ZZM  48 5
M  ZZI  48 1
M  ZZM  49 5
M  ZZI  49 1
M  ZZM  50 28
M  ZZI  50 11
M  ZZM  51 5
M  ZZI  51 1
M  ZZM  52 5
M  ZZI  52 1
M  ZZM  53 29
M  ZZI  53 27
M  ZZM  54 5
M  ZZI  54 1
M  ZZM  55 5
M  ZZI  55 1
M  ZZM  56 5
M  ZZI  56 1
M  ZZM  57 5
M  ZZI  57 1
M  ZZM  58 5
M  ZZI  58 1
M  ZZM  59 5
M  ZZI  59 1
M  ZZM  60 5
M  ZZI  60 1
M  ZZM  61 5
M  ZZI  61 1
M  ZZM  62 5
M  ZZI  62 1
M  ZZM  63 5
M  ZZI  63 1
M  ZZM  64 21
M  ZZI  64 20
M  ZZM  65 5
M  ZZI  65 1
M  ZZM  66 5
M  ZZI  66 1
M  ZZM  67 5
M  ZZI  67 1
M  ZZM  68 5
M  ZZI  68 1
M  ZZM  69 5
M  ZZI  69 1
M  ZZM  70 5
M  ZZI  70 1
M  END
> <IX>
1

> <NAME>
VHL_5F1H_2.pdb

> <Score>
-22.930245

> <Natom>
70

> <Nflex>
9

> <Hbond>
-8.468169

> <Hphob>
-6.552689

> <VwInt>
-33.389184

> <Dsolv>
20.653451

> <SolEl>
15.605428

> <Eintl>
8.473393

> <RecConf>
ND

> <projPath>
VHL_maps/

> <NAME_>
VHL_5F1H_2.pdb

$$$$
