VHL_5VBP_15.pdb
  MOLSOFT 04032206423D

 65 67  0  0  1  0  0  0  0  0999 V2000
   19.1400   -5.9202   -5.8691 C   0  0  0  0  0  0  0  0  0  0  0  0
   17.7727   -5.3652   -5.5729 C   0  0  0  0  0  0  0  0  0  0  0  0
   16.7708   -5.9954   -5.8744 O   0  0  0  0  0  0  0  0  0  0  0  0
   17.7841   -4.1214   -4.9620 N   0  0  0  0  0  0  0  0  0  0  0  0
   16.5775   -3.3406   -4.6812 C   0  0  1  0  0  0  0  0  0  0  0  0
   15.9346   -3.6170   -3.2812 C   0  0  0  0  0  0  0  0  0  0  0  0
   16.8196   -3.1625   -2.1086 C   0  0  0  0  0  0  0  0  0  0  0  0
   14.5914   -2.8767   -3.1876 C   0  0  0  0  0  0  0  0  0  0  0  0
   15.6510   -5.1117   -3.0824 C   0  0  0  0  0  0  0  0  0  0  0  0
   16.9486   -1.8534   -4.8502 C   0  0  0  0  0  0  0  0  0  0  0  0
   17.8147   -1.3315   -4.1615 O   0  0  0  0  0  0  0  0  0  0  0  0
   16.2628   -1.1210   -5.8175 N   0  0  0  0  0  0  0  0  0  0  0  0
   16.2956    0.3321   -5.8550 C   0  0  2  0  0  0  0  0  0  0  0  0
   15.0621    0.8847   -5.1259 C   0  0  0  0  0  0  0  0  0  0  0  0
   13.9270    0.4881   -5.3572 O   0  0  0  0  0  0  0  0  0  0  0  0
   15.3440    1.8776   -4.2049 N   0  0  0  0  0  0  0  0  0  0  0  0
   14.3035    2.5123   -3.4164 C   0  0  0  0  0  0  0  0  0  0  0  0
   14.1698    1.8792   -2.0557 C   0  0  0  0  0  0  0  0  0  0  0  0
   14.7054    2.4896   -0.9277 C   0  0  0  0  0  0  0  0  0  0  0  0
   14.6252    1.8803    0.3133 C   0  0  0  0  0  0  0  0  0  0  0  0
   14.0099    0.6404    0.4645 C   0  0  0  0  0  0  0  0  0  0  0  0
   13.9543   -0.0258    1.7612 C   0  0  0  0  0  0  0  0  0  0  0  0
   14.2961   -1.3223    2.1302 C   0  0  0  0  0  0  0  0  0  0  0  0
   14.9091   -2.3646    1.2732 C   0  0  0  0  0  0  0  0  0  0  0  0
   14.0516   -1.6402    3.4515 N   0  0  0  0  0  0  0  0  0  0  0  0
   13.5716   -0.5892    4.0766 C   0  0  0  0  0  0  0  0  0  0  0  0
   13.3959    0.8315    3.1461 S   0  0  0  0  0  0  0  0  0  0  0  0
   13.4557    0.0418   -0.6618 C   0  0  0  0  0  0  0  0  0  0  0  0
   13.5373    0.6514   -1.9013 C   0  0  0  0  0  0  0  0  0  0  0  0
   16.2313    0.6756   -7.3326 C   0  0  0  0  0  0  0  0  0  0  0  0
   15.5791   -0.5332   -8.0013 C   0  0  1  0  0  0  0  0  0  0  0  0
   16.3478   -0.9404   -9.1394 O   0  0  0  0  0  0  0  0  0  0  0  0
   15.5450   -1.6462   -6.9568 C   0  0  0  0  0  0  0  0  0  0  0  0
   19.9194   -5.1712   -5.7214 H   0  0  0  0  0  0  0  0  0  0  0  0
   19.1795   -6.2448   -6.9125 H   0  0  0  0  0  0  0  0  0  0  0  0
   19.3318   -6.7765   -5.2173 H   0  0  0  0  0  0  0  0  0  0  0  0
   18.6762   -3.6970   -4.7371 H   0  0  0  0  0  0  0  0  0  0  0  0
   15.8589   -3.6190   -5.4464 H   0  0  0  0  0  0  0  0  0  0  0  0
   16.4377   -3.5396   -1.1549 H   0  0  0  0  0  0  0  0  0  0  0  0
   16.8608   -2.0737   -2.0161 H   0  0  0  0  0  0  0  0  0  0  0  0
   17.8436   -3.5266   -2.2116 H   0  0  0  0  0  0  0  0  0  0  0  0
   14.7213   -1.7952   -3.2909 H   0  0  0  0  0  0  0  0  0  0  0  0
   14.0999   -3.0578   -2.2266 H   0  0  0  0  0  0  0  0  0  0  0  0
   13.8995   -3.1903   -3.9730 H   0  0  0  0  0  0  0  0  0  0  0  0
   15.0964   -5.2981   -2.1570 H   0  0  0  0  0  0  0  0  0  0  0  0
   16.5707   -5.7002   -3.0260 H   0  0  0  0  0  0  0  0  0  0  0  0
   15.0487   -5.5077   -3.8997 H   0  0  0  0  0  0  0  0  0  0  0  0
   17.2108    0.7159   -5.3901 H   0  0  0  0  0  0  0  0  0  0  0  0
   16.3054    2.1406   -4.0178 H   0  0  0  0  0  0  0  0  0  0  0  0
   14.5639    3.5718   -3.3262 H   0  0  0  0  0  0  0  0  0  0  0  0
   13.3477    2.4637   -3.9474 H   0  0  0  0  0  0  0  0  0  0  0  0
   15.2072    3.4492   -1.0093 H   0  0  0  0  0  0  0  0  0  0  0  0
   15.0741    2.3819    1.1654 H   0  0  0  0  0  0  0  0  0  0  0  0
   14.2203   -2.6807    0.4843 H   0  0  0  0  0  0  0  0  0  0  0  0
   15.1638   -3.2492    1.8637 H   0  0  0  0  0  0  0  0  0  0  0  0
   15.8187   -1.9999    0.7913 H   0  0  0  0  0  0  0  0  0  0  0  0
   13.3067   -0.6112    5.1238 H   0  0  0  0  0  0  0  0  0  0  0  0
   12.9485   -0.9153   -0.5854 H   0  0  0  0  0  0  0  0  0  0  0  0
   13.1127    0.1479   -2.7645 H   0  0  0  0  0  0  0  0  0  0  0  0
   15.6649    1.5927   -7.5263 H   0  0  0  0  0  0  0  0  0  0  0  0
   17.2416    0.8423   -7.7205 H   0  0  0  0  0  0  0  0  0  0  0  0
   14.5698   -0.2936   -8.3408 H   0  0  0  0  0  0  0  0  0  0  0  0
   17.2885   -0.8861   -8.8832 H   0  0  0  0  0  0  0  0  0  0  0  0
   15.9906   -2.5801   -7.3068 H   0  0  0  0  0  0  0  0  0  0  0  0
   14.5198   -1.8454   -6.6310 H   0  0  0  0  0  0  0  0  0  0  0  0
  1 34  1  0  0  0  0
  1 35  1  0  0  0  0
  1 36  1  0  0  0  0
  1  2  1  0  0  0  0
  2  3  2  0  0  0  0
  2  4  1  0  0  0  0
  4 37  1  0  0  0  0
  5  4  1  0  0  0  0
  5 38  1  0  0  0  0
  5  6  1  0  0  0  0
  5 10  1  0  0  0  0
  6  7  1  0  0  0  0
  6  8  1  0  0  0  0
  6  9  1  0  0  0  0
  7 39  1  0  0  0  0
  7 40  1  0  0  0  0
  7 41  1  0  0  0  0
  8 42  1  0  0  0  0
  8 43  1  0  0  0  0
  8 44  1  0  0  0  0
  9 45  1  0  0  0  0
  9 46  1  0  0  0  0
  9 47  1  0  0  0  0
 10 11  2  0  0  0  0
 10 12  1  0  0  0  0
 12 33  1  0  0  0  0
 13 12  1  0  0  0  0
 13 30  1  0  0  0  0
 13 48  1  0  0  0  0
 13 14  1  0  0  0  0
 14 15  2  0  0  0  0
 14 16  1  0  0  0  0
 16 49  1  0  0  0  0
 16 17  1  0  0  0  0
 17 50  1  0  0  0  0
 17 51  1  0  0  0  0
 17 18  1  0  0  0  0
 18 19  1  0  0  0  0
 18 29  2  0  0  0  0
 19 52  1  0  0  0  0
 19 20  2  0  0  0  0
 20 53  1  0  0  0  0
 20 21  1  0  0  0  0
 21 28  2  0  0  0  0
 21 22  1  0  0  0  0
 22 23  2  0  0  0  0
 22 27  1  0  0  0  0
 23 24  1  0  0  0  0
 23 25  1  0  0  0  0
 24 54  1  0  0  0  0
 24 55  1  0  0  0  0
 24 56  1  0  0  0  0
 25 26  2  0  0  0  0
 26 57  1  0  0  0  0
 26 27  1  0  0  0  0
 28 58  1  0  0  0  0
 28 29  1  0  0  0  0
 29 59  1  0  0  0  0
 31 30  1  0  0  0  0
 30 60  1  0  0  0  0
 30 61  1  0  0  0  0
 31 33  1  0  0  0  0
 31 62  1  0  0  0  0
 31 32  1  0  0  0  0
 32 63  1  0  0  0  0
 33 64  1  0  0  0  0
 33 65  1  0  0  0  0
M  ZZC   1 c1
M  ZZC   2 c2
M  ZZC   3 o1
M  ZZC   4 n1
M  ZZC   5 c3
M  ZZC   6 c4
M  ZZC   7 c5
M  ZZC   8 c6
M  ZZC   9 c7
M  ZZC  10 c8
M  ZZC  11 o2
M  ZZC  12 n2
M  ZZC  13 c9
M  ZZC  14 c10
M  ZZC  15 o3
M  ZZC  16 n3
M  ZZC  17 c11
M  ZZC  18 c12
M  ZZC  19 c13
M  ZZC  20 c14
M  ZZC  21 c15
M  ZZC  22 c16
M  ZZC  23 c17
M  ZZC  24 c18
M  ZZC  25 n4
M  ZZC  26 c19
M  ZZC  27 s1
M  ZZC  28 c20
M  ZZC  29 c21
M  ZZC  30 c22
M  ZZC  31 c23
M  ZZC  32 o4
M  ZZC  33 c24
M  ZZC  34 h11
M  ZZC  35 h12
M  ZZC  36 h13
M  ZZC  37 h01
M  ZZC  38 h31
M  ZZC  39 h51
M  ZZC  40 h52
M  ZZC  41 h53
M  ZZC  42 h61
M  ZZC  43 h62
M  ZZC  44 h63
M  ZZC  45 h71
M  ZZC  46 h72
M  ZZC  47 h73
M  ZZC  48 h91
M  ZZC  49 h02
M  ZZC  50 h111
M  ZZC  51 h112
M  ZZC  52 h131
M  ZZC  53 h141
M  ZZC  54 h181
M  ZZC  55 h182
M  ZZC  56 h183
M  ZZC  57 h191
M  ZZC  58 h201
M  ZZC  59 h211
M  ZZC  60 h221
M  ZZC  61 h222
M  ZZC  62 h231
M  ZZC  63 h41
M  ZZC  64 h241
M  ZZC  65 h242
M  ZZM   1 1
M  ZZI   1 111
M  ZZM   2 3
M  ZZI   2 121
M  ZZM   3 7
M  ZZI   3 81
M  ZZM   4 10
M  ZZI   4 211
M  ZZM   5 1
M  ZZI   5 113
M  ZZM   6 1
M  ZZI   6 110
M  ZZM   7 1
M  ZZI   7 111
M  ZZM   8 1
M  ZZI   8 111
M  ZZM   9 1
M  ZZI   9 111
M  ZZM  10 3
M  ZZI  10 121
M  ZZM  11 7
M  ZZI  11 81
M  ZZM  12 10
M  ZZI  12 192
M  ZZM  13 1
M  ZZI  13 113
M  ZZM  14 3
M  ZZI  14 121
M  ZZM  15 7
M  ZZI  15 81
M  ZZM  16 10
M  ZZI  16 211
M  ZZM  17 1
M  ZZI  17 112
M  ZZM  18 37
M  ZZI  18 124
M  ZZM  19 37
M  ZZI  19 125
M  ZZM  20 37
M  ZZI  20 125
M  ZZM  21 37
M  ZZI  21 124
M  ZZM  22 63
M  ZZI  22 104
M  ZZM  23 64
M  ZZI  23 105
M  ZZM  24 1
M  ZZI  24 111
M  ZZM  25 66
M  ZZI  25 222
M  ZZM  26 63
M  ZZI  26 104
M  ZZM  27 44
M  ZZI  27 248
M  ZZM  28 37
M  ZZI  28 125
M  ZZM  29 37
M  ZZI  29 125
M  ZZM  30 1
M  ZZI  30 112
M  ZZM  31 1
M  ZZI  31 113
M  ZZM  32 6
M  ZZI  32 60
M  ZZM  33 1
M  ZZI  33 112
M  ZZM  34 5
M  ZZI  34 1
M  ZZM  35 5
M  ZZI  35 1
M  ZZM  36 5
M  ZZI  36 1
M  ZZM  37 28
M  ZZI  37 11
M  ZZM  38 5
M  ZZI  38 1
M  ZZM  39 5
M  ZZI  39 1
M  ZZM  40 5
M  ZZI  40 1
M  ZZM  41 5
M  ZZI  41 1
M  ZZM  42 5
M  ZZI  42 1
M  ZZM  43 5
M  ZZI  43 1
M  ZZM  44 5
M  ZZI  44 1
M  ZZM  45 5
M  ZZI  45 1
M  ZZM  46 5
M  ZZI  46 1
M  ZZM  47 5
M  ZZI  47 1
M  ZZM  48 5
M  ZZI  48 1
M  ZZM  49 28
M  ZZI  49 11
M  ZZM  50 5
M  ZZI  50 1
M  ZZM  51 5
M  ZZI  51 1
M  ZZM  52 5
M  ZZI  52 1
M  ZZM  53 5
M  ZZI  53 1
M  ZZM  54 5
M  ZZI  54 1
M  ZZM  55 5
M  ZZI  55 1
M  ZZM  56 5
M  ZZI  56 1
M  ZZM  57 5
M  ZZI  57 1
M  ZZM  58 5
M  ZZI  58 1
M  ZZM  59 5
M  ZZI  59 1
M  ZZM  60 5
M  ZZI  60 1
M  ZZM  61 5
M  ZZI  61 1
M  ZZM  62 5
M  ZZI  62 1
M  ZZM  63 21
M  ZZI  63 20
M  ZZM  64 5
M  ZZI  64 1
M  ZZM  65 5
M  ZZI  65 1
M  END
> <IX>
1

> <NAME>
VHL_5VBP_15.pdb

> <Score>
-26.350106

> <Natom>
65

> <Nflex>
8

> <Hbond>
-7.334678

> <Hphob>
-6.924117

> <VwInt>
-27.782288

> <Dsolv>
15.447751

> <SolEl>
6.315501

> <Eintl>
6.790056

> <RecConf>
ND

> <projPath>
VHL_maps/

> <NAME_>
VHL_5VBP_15.pdb

$$$$
