VHL_5GMP_16.pdb
  MOLSOFT 04032206413D

 65 67  0  0  1  0  0  0  0  0999 V2000
   18.1170   -6.6423   -5.1287 C   0  0  0  0  0  0  0  0  0  0  0  0
   16.9005   -5.7729   -4.9671 C   0  0  0  0  0  0  0  0  0  0  0  0
   15.8156   -6.1294   -5.3930 O   0  0  0  0  0  0  0  0  0  0  0  0
   17.1427   -4.6006   -4.2782 N   0  0  0  0  0  0  0  0  0  0  0  0
   16.1343   -3.5618   -4.0107 C   0  0  1  0  0  0  0  0  0  0  0  0
   15.8962   -3.3647   -2.4840 C   0  0  0  0  0  0  0  0  0  0  0  0
   15.4307   -4.7025   -1.8968 C   0  0  0  0  0  0  0  0  0  0  0  0
   14.7926   -2.3432   -2.1850 C   0  0  0  0  0  0  0  0  0  0  0  0
   17.1627   -2.9023   -1.7494 C   0  0  0  0  0  0  0  0  0  0  0  0
   16.6275   -2.3236   -4.7892 C   0  0  0  0  0  0  0  0  0  0  0  0
   17.8221   -2.0553   -4.8453 O   0  0  0  0  0  0  0  0  0  0  0  0
   15.6743   -1.5535   -5.4633 N   0  0  0  0  0  0  0  0  0  0  0  0
   16.0667   -0.6429   -6.5288 C   0  0  2  0  0  0  0  0  0  0  0  0
   16.4481    0.7500   -6.0204 C   0  0  0  0  0  0  0  0  0  0  0  0
   15.9264    1.2697   -5.0432 O   0  0  0  0  0  0  0  0  0  0  0  0
   17.3800    1.3842   -6.8210 N   0  0  0  0  0  0  0  0  0  0  0  0
   17.8285    2.7411   -6.5547 C   0  0  0  0  0  0  0  0  0  0  0  0
   19.2394    3.0207   -7.0147 C   0  0  0  0  0  0  0  0  0  0  0  0
   20.1827    2.0075   -7.1284 C   0  0  0  0  0  0  0  0  0  0  0  0
   21.4832    2.2827   -7.4970 C   0  0  0  0  0  0  0  0  0  0  0  0
   21.8959    3.5795   -7.7574 C   0  0  0  0  0  0  0  0  0  0  0  0
   23.2807    3.8393   -8.1166 C   0  0  0  0  0  0  0  0  0  0  0  0
   24.3497    4.2553   -7.3360 C   0  0  0  0  0  0  0  0  0  0  0  0
   24.3203    4.5843   -5.8930 C   0  0  0  0  0  0  0  0  0  0  0  0
   25.5587    4.3368   -7.9976 N   0  0  0  0  0  0  0  0  0  0  0  0
   25.3954    4.0075   -9.2592 C   0  0  0  0  0  0  0  0  0  0  0  0
   23.8091    3.5929   -9.7326 S   0  0  0  0  0  0  0  0  0  0  0  0
   20.9643    4.6034   -7.6406 C   0  0  0  0  0  0  0  0  0  0  0  0
   19.6546    4.3255   -7.2739 C   0  0  0  0  0  0  0  0  0  0  0  0
   14.8301   -0.5737   -7.4107 C   0  0  0  0  0  0  0  0  0  0  0  0
   13.6775   -0.6929   -6.4248 C   0  0  1  0  0  0  0  0  0  0  0  0
   12.5356   -1.3095   -7.0138 O   0  0  0  0  0  0  0  0  0  0  0  0
   14.2281   -1.5812   -5.3222 C   0  0  0  0  0  0  0  0  0  0  0  0
   19.0085   -6.0362   -5.3167 H   0  0  0  0  0  0  0  0  0  0  0  0
   17.9726   -7.3158   -5.9790 H   0  0  0  0  0  0  0  0  0  0  0  0
   18.2543   -7.2368   -4.2228 H   0  0  0  0  0  0  0  0  0  0  0  0
   18.1038   -4.3952   -4.0295 H   0  0  0  0  0  0  0  0  0  0  0  0
   15.2013   -3.9081   -4.4558 H   0  0  0  0  0  0  0  0  0  0  0  0
   15.1758   -4.5981   -0.8394 H   0  0  0  0  0  0  0  0  0  0  0  0
   16.2007   -5.4714   -1.9809 H   0  0  0  0  0  0  0  0  0  0  0  0
   14.5405   -5.0792   -2.4105 H   0  0  0  0  0  0  0  0  0  0  0  0
   15.0753   -1.3367   -2.5056 H   0  0  0  0  0  0  0  0  0  0  0  0
   14.5884   -2.2796   -1.1110 H   0  0  0  0  0  0  0  0  0  0  0  0
   13.8503   -2.6209   -2.6669 H   0  0  0  0  0  0  0  0  0  0  0  0
   16.9864   -2.8071   -0.6731 H   0  0  0  0  0  0  0  0  0  0  0  0
   17.5093   -1.9283   -2.1082 H   0  0  0  0  0  0  0  0  0  0  0  0
   17.9818   -3.6086   -1.8721 H   0  0  0  0  0  0  0  0  0  0  0  0
   16.9148   -1.0658   -7.0772 H   0  0  0  0  0  0  0  0  0  0  0  0
   17.7714    0.8853   -7.6151 H   0  0  0  0  0  0  0  0  0  0  0  0
   17.1274    3.4032   -7.0744 H   0  0  0  0  0  0  0  0  0  0  0  0
   17.7518    2.9431   -5.4811 H   0  0  0  0  0  0  0  0  0  0  0  0
   19.9134    0.9770   -6.9289 H   0  0  0  0  0  0  0  0  0  0  0  0
   22.1816    1.4596   -7.5833 H   0  0  0  0  0  0  0  0  0  0  0  0
   25.2870    4.9710   -5.5578 H   0  0  0  0  0  0  0  0  0  0  0  0
   24.0954    3.6948   -5.3000 H   0  0  0  0  0  0  0  0  0  0  0  0
   23.5635    5.3445   -5.6795 H   0  0  0  0  0  0  0  0  0  0  0  0
   26.2132    3.9998   -9.9656 H   0  0  0  0  0  0  0  0  0  0  0  0
   21.2547    5.6317   -7.8348 H   0  0  0  0  0  0  0  0  0  0  0  0
   18.9507    5.1479   -7.1843 H   0  0  0  0  0  0  0  0  0  0  0  0
   14.7647    0.3406   -8.0100 H   0  0  0  0  0  0  0  0  0  0  0  0
   14.8189   -1.4201   -8.1060 H   0  0  0  0  0  0  0  0  0  0  0  0
   13.3850    0.2861   -6.0279 H   0  0  0  0  0  0  0  0  0  0  0  0
   12.1852   -0.7134   -7.7003 H   0  0  0  0  0  0  0  0  0  0  0  0
   13.8469   -2.6028   -5.3593 H   0  0  0  0  0  0  0  0  0  0  0  0
   13.9548   -1.1564   -4.3564 H   0  0  0  0  0  0  0  0  0  0  0  0
  1 34  1  0  0  0  0
  1 35  1  0  0  0  0
  1 36  1  0  0  0  0
  1  2  1  0  0  0  0
  2  3  2  0  0  0  0
  2  4  1  0  0  0  0
  4 37  1  0  0  0  0
  5  4  1  0  0  0  0
  5 38  1  0  0  0  0
  5  6  1  0  0  0  0
  5 10  1  0  0  0  0
  6  7  1  0  0  0  0
  6  8  1  0  0  0  0
  6  9  1  0  0  0  0
  7 39  1  0  0  0  0
  7 40  1  0  0  0  0
  7 41  1  0  0  0  0
  8 42  1  0  0  0  0
  8 43  1  0  0  0  0
  8 44  1  0  0  0  0
  9 45  1  0  0  0  0
  9 46  1  0  0  0  0
  9 47  1  0  0  0  0
 10 11  2  0  0  0  0
 10 12  1  0  0  0  0
 12 33  1  0  0  0  0
 13 12  1  0  0  0  0
 13 30  1  0  0  0  0
 13 48  1  0  0  0  0
 13 14  1  0  0  0  0
 14 15  2  0  0  0  0
 14 16  1  0  0  0  0
 16 49  1  0  0  0  0
 16 17  1  0  0  0  0
 17 50  1  0  0  0  0
 17 51  1  0  0  0  0
 17 18  1  0  0  0  0
 18 19  1  0  0  0  0
 18 29  2  0  0  0  0
 19 52  1  0  0  0  0
 19 20  2  0  0  0  0
 20 53  1  0  0  0  0
 20 21  1  0  0  0  0
 21 28  2  0  0  0  0
 21 22  1  0  0  0  0
 22 23  2  0  0  0  0
 22 27  1  0  0  0  0
 23 24  1  0  0  0  0
 23 25  1  0  0  0  0
 24 54  1  0  0  0  0
 24 55  1  0  0  0  0
 24 56  1  0  0  0  0
 25 26  2  0  0  0  0
 26 57  1  0  0  0  0
 26 27  1  0  0  0  0
 28 58  1  0  0  0  0
 28 29  1  0  0  0  0
 29 59  1  0  0  0  0
 31 30  1  0  0  0  0
 30 60  1  0  0  0  0
 30 61  1  0  0  0  0
 31 33  1  0  0  0  0
 31 62  1  0  0  0  0
 31 32  1  0  0  0  0
 32 63  1  0  0  0  0
 33 64  1  0  0  0  0
 33 65  1  0  0  0  0
M  ZZC   1 c1
M  ZZC   2 c2
M  ZZC   3 o1
M  ZZC   4 n1
M  ZZC   5 c3
M  ZZC   6 c4
M  ZZC   7 c5
M  ZZC   8 c6
M  ZZC   9 c7
M  ZZC  10 c8
M  ZZC  11 o2
M  ZZC  12 n2
M  ZZC  13 c9
M  ZZC  14 c10
M  ZZC  15 o3
M  ZZC  16 n3
M  ZZC  17 c11
M  ZZC  18 c12
M  ZZC  19 c13
M  ZZC  20 c14
M  ZZC  21 c15
M  ZZC  22 c16
M  ZZC  23 c17
M  ZZC  24 c18
M  ZZC  25 n4
M  ZZC  26 c19
M  ZZC  27 s1
M  ZZC  28 c20
M  ZZC  29 c21
M  ZZC  30 c22
M  ZZC  31 c23
M  ZZC  32 o4
M  ZZC  33 c24
M  ZZC  34 h11
M  ZZC  35 h12
M  ZZC  36 h13
M  ZZC  37 h01
M  ZZC  38 h31
M  ZZC  39 h51
M  ZZC  40 h52
M  ZZC  41 h53
M  ZZC  42 h61
M  ZZC  43 h62
M  ZZC  44 h63
M  ZZC  45 h71
M  ZZC  46 h72
M  ZZC  47 h73
M  ZZC  48 h91
M  ZZC  49 h02
M  ZZC  50 h111
M  ZZC  51 h112
M  ZZC  52 h131
M  ZZC  53 h141
M  ZZC  54 h181
M  ZZC  55 h182
M  ZZC  56 h183
M  ZZC  57 h191
M  ZZC  58 h201
M  ZZC  59 h211
M  ZZC  60 h221
M  ZZC  61 h222
M  ZZC  62 h231
M  ZZC  63 h41
M  ZZC  64 h241
M  ZZC  65 h242
M  ZZM   1 1
M  ZZI   1 111
M  ZZM   2 3
M  ZZI   2 121
M  ZZM   3 7
M  ZZI   3 81
M  ZZM   4 10
M  ZZI   4 211
M  ZZM   5 1
M  ZZI   5 113
M  ZZM   6 1
M  ZZI   6 110
M  ZZM   7 1
M  ZZI   7 111
M  ZZM   8 1
M  ZZI   8 111
M  ZZM   9 1
M  ZZI   9 111
M  ZZM  10 3
M  ZZI  10 121
M  ZZM  11 7
M  ZZI  11 81
M  ZZM  12 10
M  ZZI  12 192
M  ZZM  13 1
M  ZZI  13 113
M  ZZM  14 3
M  ZZI  14 121
M  ZZM  15 7
M  ZZI  15 81
M  ZZM  16 10
M  ZZI  16 211
M  ZZM  17 1
M  ZZI  17 112
M  ZZM  18 37
M  ZZI  18 124
M  ZZM  19 37
M  ZZI  19 125
M  ZZM  20 37
M  ZZI  20 125
M  ZZM  21 37
M  ZZI  21 124
M  ZZM  22 63
M  ZZI  22 104
M  ZZM  23 64
M  ZZI  23 105
M  ZZM  24 1
M  ZZI  24 111
M  ZZM  25 66
M  ZZI  25 222
M  ZZM  26 63
M  ZZI  26 104
M  ZZM  27 44
M  ZZI  27 248
M  ZZM  28 37
M  ZZI  28 125
M  ZZM  29 37
M  ZZI  29 125
M  ZZM  30 1
M  ZZI  30 112
M  ZZM  31 1
M  ZZI  31 113
M  ZZM  32 6
M  ZZI  32 60
M  ZZM  33 1
M  ZZI  33 112
M  ZZM  34 5
M  ZZI  34 1
M  ZZM  35 5
M  ZZI  35 1
M  ZZM  36 5
M  ZZI  36 1
M  ZZM  37 28
M  ZZI  37 11
M  ZZM  38 5
M  ZZI  38 1
M  ZZM  39 5
M  ZZI  39 1
M  ZZM  40 5
M  ZZI  40 1
M  ZZM  41 5
M  ZZI  41 1
M  ZZM  42 5
M  ZZI  42 1
M  ZZM  43 5
M  ZZI  43 1
M  ZZM  44 5
M  ZZI  44 1
M  ZZM  45 5
M  ZZI  45 1
M  ZZM  46 5
M  ZZI  46 1
M  ZZM  47 5
M  ZZI  47 1
M  ZZM  48 5
M  ZZI  48 1
M  ZZM  49 28
M  ZZI  49 11
M  ZZM  50 5
M  ZZI  50 1
M  ZZM  51 5
M  ZZI  51 1
M  ZZM  52 5
M  ZZI  52 1
M  ZZM  53 5
M  ZZI  53 1
M  ZZM  54 5
M  ZZI  54 1
M  ZZM  55 5
M  ZZI  55 1
M  ZZM  56 5
M  ZZI  56 1
M  ZZM  57 5
M  ZZI  57 1
M  ZZM  58 5
M  ZZI  58 1
M  ZZM  59 5
M  ZZI  59 1
M  ZZM  60 5
M  ZZI  60 1
M  ZZM  61 5
M  ZZI  61 1
M  ZZM  62 5
M  ZZI  62 1
M  ZZM  63 21
M  ZZI  63 20
M  ZZM  64 5
M  ZZI  64 1
M  ZZM  65 5
M  ZZI  65 1
M  END
> <IX>
1

> <NAME>
VHL_5GMP_16.pdb

> <Score>
-11.795997

> <Natom>
65

> <Nflex>
8

> <Hbond>
-4.963982

> <Hphob>
-6.594389

> <VwInt>
-28.101623

> <Dsolv>
16.697142

> <SolEl>
17.07563

> <Eintl>
7.816615

> <RecConf>
ND

> <projPath>
VHL_maps/

> <NAME_>
VHL_5GMP_16.pdb

$$$$
