VHL_2GQG_2.pdb
  MOLSOFT 04032206373D

 65 67  0  0  1  0  0  0  0  0999 V2000
   18.0577   -7.0323   -5.1145 C   0  0  0  0  0  0  0  0  0  0  0  0
   16.9134   -6.0593   -5.0640 C   0  0  0  0  0  0  0  0  0  0  0  0
   15.8399   -6.3298   -5.5742 O   0  0  0  0  0  0  0  0  0  0  0  0
   17.2000   -4.9027   -4.3675 N   0  0  0  0  0  0  0  0  0  0  0  0
   16.2631   -3.7829   -4.1985 C   0  0  1  0  0  0  0  0  0  0  0  0
   15.8531   -3.5629   -2.7108 C   0  0  0  0  0  0  0  0  0  0  0  0
   15.3251   -4.8861   -2.1421 C   0  0  0  0  0  0  0  0  0  0  0  0
   14.7207   -2.5343   -2.5763 C   0  0  0  0  0  0  0  0  0  0  0  0
   17.0249   -3.0785   -1.8445 C   0  0  0  0  0  0  0  0  0  0  0  0
   16.9627   -2.5822   -4.8589 C   0  0  0  0  0  0  0  0  0  0  0  0
   18.1663   -2.4033   -4.7303 O   0  0  0  0  0  0  0  0  0  0  0  0
   16.1915   -1.6788   -5.5865 N   0  0  0  0  0  0  0  0  0  0  0  0
   16.8286   -0.5907   -6.3156 C   0  0  2  0  0  0  0  0  0  0  0  0
   17.3697    0.5006   -5.3944 C   0  0  0  0  0  0  0  0  0  0  0  0
   16.9303    0.7020   -4.2700 O   0  0  0  0  0  0  0  0  0  0  0  0
   18.3256    1.2916   -6.0085 N   0  0  0  0  0  0  0  0  0  0  0  0
   18.6917    2.5948   -5.4897 C   0  0  0  0  0  0  0  0  0  0  0  0
   17.6893    3.6031   -5.9842 C   0  0  0  0  0  0  0  0  0  0  0  0
   17.9265    4.3567   -7.1308 C   0  0  0  0  0  0  0  0  0  0  0  0
   16.9025    5.0875   -7.7122 C   0  0  0  0  0  0  0  0  0  0  0  0
   15.6232    5.0412   -7.1711 C   0  0  0  0  0  0  0  0  0  0  0  0
   14.4819    5.5971   -7.8649 C   0  0  0  0  0  0  0  0  0  0  0  0
   13.4477    4.9370   -8.5129 C   0  0  0  0  0  0  0  0  0  0  0  0
   13.3247    3.4760   -8.7372 C   0  0  0  0  0  0  0  0  0  0  0  0
   12.4340    5.7547   -8.9574 N   0  0  0  0  0  0  0  0  0  0  0  0
   12.7465    7.0062   -8.7018 C   0  0  0  0  0  0  0  0  0  0  0  0
   14.2315    7.2903   -7.9165 S   0  0  0  0  0  0  0  0  0  0  0  0
   15.4128    4.3761   -5.9737 C   0  0  0  0  0  0  0  0  0  0  0  0
   16.4409    3.6811   -5.3768 C   0  0  0  0  0  0  0  0  0  0  0  0
   15.7379   -0.0396   -7.2340 C   0  0  0  0  0  0  0  0  0  0  0  0
   14.4588   -0.4025   -6.5021 C   0  0  1  0  0  0  0  0  0  0  0  0
   13.3449   -0.4577   -7.3890 O   0  0  0  0  0  0  0  0  0  0  0  0
   14.7969   -1.7719   -5.9485 C   0  0  0  0  0  0  0  0  0  0  0  0
   19.0151   -6.5083   -5.1936 H   0  0  0  0  0  0  0  0  0  0  0  0
   17.9448   -7.6802   -5.9886 H   0  0  0  0  0  0  0  0  0  0  0  0
   18.0420   -7.6437   -4.2093 H   0  0  0  0  0  0  0  0  0  0  0  0
   18.1523   -4.7705   -4.0441 H   0  0  0  0  0  0  0  0  0  0  0  0
   15.3638   -4.0247   -4.7588 H   0  0  0  0  0  0  0  0  0  0  0  0
   14.9930   -4.7668   -1.1077 H   0  0  0  0  0  0  0  0  0  0  0  0
   16.0895   -5.6655   -2.1516 H   0  0  0  0  0  0  0  0  0  0  0  0
   14.4732   -5.2596   -2.7192 H   0  0  0  0  0  0  0  0  0  0  0  0
   15.0233   -1.5554   -2.9627 H   0  0  0  0  0  0  0  0  0  0  0  0
   14.4390   -2.3851   -1.5297 H   0  0  0  0  0  0  0  0  0  0  0  0
   13.8283   -2.8306   -3.1348 H   0  0  0  0  0  0  0  0  0  0  0  0
   16.7384   -3.0053   -0.7903 H   0  0  0  0  0  0  0  0  0  0  0  0
   17.3769   -2.0883   -2.1499 H   0  0  0  0  0  0  0  0  0  0  0  0
   17.8729   -3.7591   -1.8969 H   0  0  0  0  0  0  0  0  0  0  0  0
   17.6555   -0.9917   -6.8987 H   0  0  0  0  0  0  0  0  0  0  0  0
   18.6858    1.0196   -6.9187 H   0  0  0  0  0  0  0  0  0  0  0  0
   18.7137    2.5705   -4.3945 H   0  0  0  0  0  0  0  0  0  0  0  0
   19.7010    2.8294   -5.8435 H   0  0  0  0  0  0  0  0  0  0  0  0
   18.8995    4.3341   -7.6130 H   0  0  0  0  0  0  0  0  0  0  0  0
   17.0941    5.6440   -8.6253 H   0  0  0  0  0  0  0  0  0  0  0  0
   12.4387    3.2499   -9.3372 H   0  0  0  0  0  0  0  0  0  0  0  0
   13.2238    2.9370   -7.7913 H   0  0  0  0  0  0  0  0  0  0  0  0
   14.2022    3.0816   -9.2563 H   0  0  0  0  0  0  0  0  0  0  0  0
   12.1043    7.8287   -8.9613 H   0  0  0  0  0  0  0  0  0  0  0  0
   14.4253    4.3539   -5.5202 H   0  0  0  0  0  0  0  0  0  0  0  0
   16.2335    3.1293   -4.4649 H   0  0  0  0  0  0  0  0  0  0  0  0
   15.8096    1.0358   -7.4276 H   0  0  0  0  0  0  0  0  0  0  0  0
   15.7679   -0.5377   -8.2107 H   0  0  0  0  0  0  0  0  0  0  0  0
   14.2558    0.3197   -5.7019 H   0  0  0  0  0  0  0  0  0  0  0  0
   12.5370   -0.3311   -6.8608 H   0  0  0  0  0  0  0  0  0  0  0  0
   14.7218   -2.5320   -6.7301 H   0  0  0  0  0  0  0  0  0  0  0  0
   14.1524   -2.0695   -5.1225 H   0  0  0  0  0  0  0  0  0  0  0  0
  1 34  1  0  0  0  0
  1 35  1  0  0  0  0
  1 36  1  0  0  0  0
  1  2  1  0  0  0  0
  2  3  2  0  0  0  0
  2  4  1  0  0  0  0
  4 37  1  0  0  0  0
  5  4  1  0  0  0  0
  5 38  1  0  0  0  0
  5  6  1  0  0  0  0
  5 10  1  0  0  0  0
  6  7  1  0  0  0  0
  6  8  1  0  0  0  0
  6  9  1  0  0  0  0
  7 39  1  0  0  0  0
  7 40  1  0  0  0  0
  7 41  1  0  0  0  0
  8 42  1  0  0  0  0
  8 43  1  0  0  0  0
  8 44  1  0  0  0  0
  9 45  1  0  0  0  0
  9 46  1  0  0  0  0
  9 47  1  0  0  0  0
 10 11  2  0  0  0  0
 10 12  1  0  0  0  0
 12 33  1  0  0  0  0
 13 12  1  0  0  0  0
 13 30  1  0  0  0  0
 13 48  1  0  0  0  0
 13 14  1  0  0  0  0
 14 15  2  0  0  0  0
 14 16  1  0  0  0  0
 16 49  1  0  0  0  0
 16 17  1  0  0  0  0
 17 50  1  0  0  0  0
 17 51  1  0  0  0  0
 17 18  1  0  0  0  0
 18 19  1  0  0  0  0
 18 29  2  0  0  0  0
 19 52  1  0  0  0  0
 19 20  2  0  0  0  0
 20 53  1  0  0  0  0
 20 21  1  0  0  0  0
 21 28  2  0  0  0  0
 21 22  1  0  0  0  0
 22 23  2  0  0  0  0
 22 27  1  0  0  0  0
 23 24  1  0  0  0  0
 23 25  1  0  0  0  0
 24 54  1  0  0  0  0
 24 55  1  0  0  0  0
 24 56  1  0  0  0  0
 25 26  2  0  0  0  0
 26 57  1  0  0  0  0
 26 27  1  0  0  0  0
 28 58  1  0  0  0  0
 28 29  1  0  0  0  0
 29 59  1  0  0  0  0
 31 30  1  0  0  0  0
 30 60  1  0  0  0  0
 30 61  1  0  0  0  0
 31 33  1  0  0  0  0
 31 62  1  0  0  0  0
 31 32  1  0  0  0  0
 32 63  1  0  0  0  0
 33 64  1  0  0  0  0
 33 65  1  0  0  0  0
M  ZZC   1 c1
M  ZZC   2 c2
M  ZZC   3 o1
M  ZZC   4 n1
M  ZZC   5 c3
M  ZZC   6 c4
M  ZZC   7 c5
M  ZZC   8 c6
M  ZZC   9 c7
M  ZZC  10 c8
M  ZZC  11 o2
M  ZZC  12 n2
M  ZZC  13 c9
M  ZZC  14 c10
M  ZZC  15 o3
M  ZZC  16 n3
M  ZZC  17 c11
M  ZZC  18 c12
M  ZZC  19 c13
M  ZZC  20 c14
M  ZZC  21 c15
M  ZZC  22 c16
M  ZZC  23 c17
M  ZZC  24 c18
M  ZZC  25 n4
M  ZZC  26 c19
M  ZZC  27 s1
M  ZZC  28 c20
M  ZZC  29 c21
M  ZZC  30 c22
M  ZZC  31 c23
M  ZZC  32 o4
M  ZZC  33 c24
M  ZZC  34 h11
M  ZZC  35 h12
M  ZZC  36 h13
M  ZZC  37 h01
M  ZZC  38 h31
M  ZZC  39 h51
M  ZZC  40 h52
M  ZZC  41 h53
M  ZZC  42 h61
M  ZZC  43 h62
M  ZZC  44 h63
M  ZZC  45 h71
M  ZZC  46 h72
M  ZZC  47 h73
M  ZZC  48 h91
M  ZZC  49 h02
M  ZZC  50 h111
M  ZZC  51 h112
M  ZZC  52 h131
M  ZZC  53 h141
M  ZZC  54 h181
M  ZZC  55 h182
M  ZZC  56 h183
M  ZZC  57 h191
M  ZZC  58 h201
M  ZZC  59 h211
M  ZZC  60 h221
M  ZZC  61 h222
M  ZZC  62 h231
M  ZZC  63 h41
M  ZZC  64 h241
M  ZZC  65 h242
M  ZZM   1 1
M  ZZI   1 111
M  ZZM   2 3
M  ZZI   2 121
M  ZZM   3 7
M  ZZI   3 81
M  ZZM   4 10
M  ZZI   4 211
M  ZZM   5 1
M  ZZI   5 113
M  ZZM   6 1
M  ZZI   6 110
M  ZZM   7 1
M  ZZI   7 111
M  ZZM   8 1
M  ZZI   8 111
M  ZZM   9 1
M  ZZI   9 111
M  ZZM  10 3
M  ZZI  10 121
M  ZZM  11 7
M  ZZI  11 81
M  ZZM  12 10
M  ZZI  12 192
M  ZZM  13 1
M  ZZI  13 113
M  ZZM  14 3
M  ZZI  14 121
M  ZZM  15 7
M  ZZI  15 81
M  ZZM  16 10
M  ZZI  16 211
M  ZZM  17 1
M  ZZI  17 112
M  ZZM  18 37
M  ZZI  18 124
M  ZZM  19 37
M  ZZI  19 125
M  ZZM  20 37
M  ZZI  20 125
M  ZZM  21 37
M  ZZI  21 124
M  ZZM  22 63
M  ZZI  22 104
M  ZZM  23 64
M  ZZI  23 105
M  ZZM  24 1
M  ZZI  24 111
M  ZZM  25 66
M  ZZI  25 222
M  ZZM  26 63
M  ZZI  26 104
M  ZZM  27 44
M  ZZI  27 248
M  ZZM  28 37
M  ZZI  28 125
M  ZZM  29 37
M  ZZI  29 125
M  ZZM  30 1
M  ZZI  30 112
M  ZZM  31 1
M  ZZI  31 113
M  ZZM  32 6
M  ZZI  32 60
M  ZZM  33 1
M  ZZI  33 112
M  ZZM  34 5
M  ZZI  34 1
M  ZZM  35 5
M  ZZI  35 1
M  ZZM  36 5
M  ZZI  36 1
M  ZZM  37 28
M  ZZI  37 11
M  ZZM  38 5
M  ZZI  38 1
M  ZZM  39 5
M  ZZI  39 1
M  ZZM  40 5
M  ZZI  40 1
M  ZZM  41 5
M  ZZI  41 1
M  ZZM  42 5
M  ZZI  42 1
M  ZZM  43 5
M  ZZI  43 1
M  ZZM  44 5
M  ZZI  44 1
M  ZZM  45 5
M  ZZI  45 1
M  ZZM  46 5
M  ZZI  46 1
M  ZZM  47 5
M  ZZI  47 1
M  ZZM  48 5
M  ZZI  48 1
M  ZZM  49 28
M  ZZI  49 11
M  ZZM  50 5
M  ZZI  50 1
M  ZZM  51 5
M  ZZI  51 1
M  ZZM  52 5
M  ZZI  52 1
M  ZZM  53 5
M  ZZI  53 1
M  ZZM  54 5
M  ZZI  54 1
M  ZZM  55 5
M  ZZI  55 1
M  ZZM  56 5
M  ZZI  56 1
M  ZZM  57 5
M  ZZI  57 1
M  ZZM  58 5
M  ZZI  58 1
M  ZZM  59 5
M  ZZI  59 1
M  ZZM  60 5
M  ZZI  60 1
M  ZZM  61 5
M  ZZI  61 1
M  ZZM  62 5
M  ZZI  62 1
M  ZZM  63 21
M  ZZI  63 20
M  ZZM  64 5
M  ZZI  64 1
M  ZZM  65 5
M  ZZI  65 1
M  END
> <IX>
1

> <NAME>
VHL_2GQG_2.pdb

> <Score>
-7.414879

> <Natom>
65

> <Nflex>
8

> <Hbond>
-6.262981

> <Hphob>
-6.853008

> <VwInt>
-28.279668

> <Dsolv>
21.586119

> <SolEl>
23.823598

> <Eintl>
7.647471

> <RecConf>
ND

> <projPath>
VHL_maps/

> <NAME_>
VHL_2GQG_2.pdb

$$$$
