VHL_5WUK_5.pdb
  MOLSOFT 04032206423D

 65 67  0  0  1  0  0  0  0  0999 V2000
   15.3520   -5.3006   -3.3230 O   0  0  0  0  0  0  0  0  0  0  0  0
   16.4600   -5.1074   -3.7990 C   0  0  0  0  0  0  0  0  0  0  0  0
   17.0570   -3.8674   -3.8838 N   0  0  0  0  0  0  0  0  0  0  0  0
   16.3298   -2.6323   -3.5771 C   0  0  1  0  0  0  0  0  0  0  0  0
   16.6018   -2.0606   -2.1525 C   0  0  0  0  0  0  0  0  0  0  0  0
   18.0387   -1.5439   -1.9865 C   0  0  0  0  0  0  0  0  0  0  0  0
   15.6368   -0.8983   -1.8706 C   0  0  0  0  0  0  0  0  0  0  0  0
   16.3508   -3.1393   -1.0850 C   0  0  0  0  0  0  0  0  0  0  0  0
   16.7026   -1.6729   -4.7258 C   0  0  0  0  0  0  0  0  0  0  0  0
   17.8753   -1.4459   -4.9998 O   0  0  0  0  0  0  0  0  0  0  0  0
   15.6534   -1.1275   -5.4640 N   0  0  0  0  0  0  0  0  0  0  0  0
   15.9037   -0.3635   -6.6778 C   0  0  2  0  0  0  0  0  0  0  0  0
   16.2505    1.0939   -6.3580 C   0  0  0  0  0  0  0  0  0  0  0  0
   15.5662    1.7910   -5.6210 O   0  0  0  0  0  0  0  0  0  0  0  0
   17.3944    1.5451   -6.9906 N   0  0  0  0  0  0  0  0  0  0  0  0
   17.8687    2.9084   -6.8111 C   0  0  0  0  0  0  0  0  0  0  0  0
   19.3327    3.1353   -7.1173 C   0  0  0  0  0  0  0  0  0  0  0  0
   19.8156    4.4381   -7.2260 C   0  0  0  0  0  0  0  0  0  0  0  0
   21.1659    4.6964   -7.4138 C   0  0  0  0  0  0  0  0  0  0  0  0
   22.0768    3.6524   -7.5068 C   0  0  0  0  0  0  0  0  0  0  0  0
   23.5079    3.8920   -7.6175 C   0  0  0  0  0  0  0  0  0  0  0  0
   24.3586    3.8847   -8.7149 C   0  0  0  0  0  0  0  0  0  0  0  0
   23.9899    3.6810  -10.1324 C   0  0  0  0  0  0  0  0  0  0  0  0
   25.6925    4.0854   -8.4210 N   0  0  0  0  0  0  0  0  0  0  0  0
   25.8403    4.2660   -7.1283 C   0  0  0  0  0  0  0  0  0  0  0  0
   24.4139    4.2144   -6.1912 S   0  0  0  0  0  0  0  0  0  0  0  0
   21.5934    2.3549   -7.4427 C   0  0  0  0  0  0  0  0  0  0  0  0
   20.2520    2.0981   -7.2350 C   0  0  0  0  0  0  0  0  0  0  0  0
   14.5955   -0.4592   -7.4443 C   0  0  0  0  0  0  0  0  0  0  0  0
   13.5312   -0.5742   -6.3629 C   0  0  1  0  0  0  0  0  0  0  0  0
   12.3952   -1.3018   -6.8294 O   0  0  0  0  0  0  0  0  0  0  0  0
   14.2325   -1.3498   -5.2607 C   0  0  0  0  0  0  0  0  0  0  0  0
   17.2876   -6.2238   -4.3813 C   0  0  0  0  0  0  0  0  0  0  0  0
   18.0045   -3.7960   -4.2439 H   0  0  0  0  0  0  0  0  0  0  0  0
   15.2682   -2.8829   -3.6376 H   0  0  0  0  0  0  0  0  0  0  0  0
   18.7696   -2.3002   -2.2759 H   0  0  0  0  0  0  0  0  0  0  0  0
   18.2487   -1.2717   -0.9473 H   0  0  0  0  0  0  0  0  0  0  0  0
   18.2272   -0.6501   -2.5883 H   0  0  0  0  0  0  0  0  0  0  0  0
   14.5922   -1.2228   -1.9266 H   0  0  0  0  0  0  0  0  0  0  0  0
   15.7688   -0.0771   -2.5819 H   0  0  0  0  0  0  0  0  0  0  0  0
   15.7919   -0.4835   -0.8692 H   0  0  0  0  0  0  0  0  0  0  0  0
   15.3413   -3.5559   -1.1647 H   0  0  0  0  0  0  0  0  0  0  0  0
   16.4507   -2.7321   -0.0736 H   0  0  0  0  0  0  0  0  0  0  0  0
   17.0627   -3.9661   -1.1636 H   0  0  0  0  0  0  0  0  0  0  0  0
   16.7230   -0.8239   -7.2421 H   0  0  0  0  0  0  0  0  0  0  0  0
   17.8968    0.9161   -7.6095 H   0  0  0  0  0  0  0  0  0  0  0  0
   17.2552    3.5354   -7.4673 H   0  0  0  0  0  0  0  0  0  0  0  0
   17.6688    3.2121   -5.7778 H   0  0  0  0  0  0  0  0  0  0  0  0
   19.1324    5.2780   -7.1374 H   0  0  0  0  0  0  0  0  0  0  0  0
   21.5063    5.7263   -7.4673 H   0  0  0  0  0  0  0  0  0  0  0  0
   23.7197    2.6389  -10.3143 H   0  0  0  0  0  0  0  0  0  0  0  0
   24.8247    3.9280  -10.7943 H   0  0  0  0  0  0  0  0  0  0  0  0
   23.1464    4.3184  -10.4114 H   0  0  0  0  0  0  0  0  0  0  0  0
   26.8070    4.4387   -6.6769 H   0  0  0  0  0  0  0  0  0  0  0  0
   22.2698    1.5145   -7.5347 H   0  0  0  0  0  0  0  0  0  0  0  0
   19.9433    1.0632   -7.1486 H   0  0  0  0  0  0  0  0  0  0  0  0
   14.4144    0.3886   -8.1135 H   0  0  0  0  0  0  0  0  0  0  0  0
   14.6010   -1.3664   -8.0577 H   0  0  0  0  0  0  0  0  0  0  0  0
   13.2070    0.4099   -6.0065 H   0  0  0  0  0  0  0  0  0  0  0  0
   11.9549   -0.7717   -7.5189 H   0  0  0  0  0  0  0  0  0  0  0  0
   14.0197   -2.4219   -5.3179 H   0  0  0  0  0  0  0  0  0  0  0  0
   13.9351   -0.9997   -4.2683 H   0  0  0  0  0  0  0  0  0  0  0  0
   16.7623   -6.6428   -5.2450 H   0  0  0  0  0  0  0  0  0  0  0  0
   17.4281   -7.0035   -3.6297 H   0  0  0  0  0  0  0  0  0  0  0  0
   18.2717   -5.8750   -4.7069 H   0  0  0  0  0  0  0  0  0  0  0  0
  1  2  2  0  0  0  0
  2  3  1  0  0  0  0
  2 33  1  0  0  0  0
  4  3  1  0  0  0  0
  3 34  1  0  0  0  0
  4  5  1  0  0  0  0
  4 35  1  0  0  0  0
  4  9  1  0  0  0  0
  5  6  1  0  0  0  0
  5  7  1  0  0  0  0
  5  8  1  0  0  0  0
  6 36  1  0  0  0  0
  6 37  1  0  0  0  0
  6 38  1  0  0  0  0
  7 39  1  0  0  0  0
  7 40  1  0  0  0  0
  7 41  1  0  0  0  0
  8 42  1  0  0  0  0
  8 43  1  0  0  0  0
  8 44  1  0  0  0  0
  9 10  2  0  0  0  0
  9 11  1  0  0  0  0
 11 32  1  0  0  0  0
 12 11  1  0  0  0  0
 12 29  1  0  0  0  0
 12 45  1  0  0  0  0
 12 13  1  0  0  0  0
 13 14  2  0  0  0  0
 13 15  1  0  0  0  0
 15 46  1  0  0  0  0
 15 16  1  0  0  0  0
 16 47  1  0  0  0  0
 16 48  1  0  0  0  0
 16 17  1  0  0  0  0
 17 18  1  0  0  0  0
 17 28  2  0  0  0  0
 18 49  1  0  0  0  0
 18 19  2  0  0  0  0
 19 50  1  0  0  0  0
 19 20  1  0  0  0  0
 20 27  2  0  0  0  0
 20 21  1  0  0  0  0
 21 22  2  0  0  0  0
 21 26  1  0  0  0  0
 22 23  1  0  0  0  0
 22 24  1  0  0  0  0
 23 51  1  0  0  0  0
 23 52  1  0  0  0  0
 23 53  1  0  0  0  0
 24 25  2  0  0  0  0
 25 54  1  0  0  0  0
 25 26  1  0  0  0  0
 27 55  1  0  0  0  0
 27 28  1  0  0  0  0
 28 56  1  0  0  0  0
 30 29  1  0  0  0  0
 29 57  1  0  0  0  0
 29 58  1  0  0  0  0
 30 32  1  0  0  0  0
 30 59  1  0  0  0  0
 30 31  1  0  0  0  0
 31 60  1  0  0  0  0
 32 61  1  0  0  0  0
 32 62  1  0  0  0  0
 33 63  1  0  0  0  0
 33 64  1  0  0  0  0
 33 65  1  0  0  0  0
M  ZZC   1 o1
M  ZZC   2 c1
M  ZZC   3 n1
M  ZZC   4 c2
M  ZZC   5 c3
M  ZZC   6 c4
M  ZZC   7 c5
M  ZZC   8 c6
M  ZZC   9 c7
M  ZZC  10 o2
M  ZZC  11 n2
M  ZZC  12 c8
M  ZZC  13 c9
M  ZZC  14 o3
M  ZZC  15 n3
M  ZZC  16 c10
M  ZZC  17 c11
M  ZZC  18 c12
M  ZZC  19 c13
M  ZZC  20 c14
M  ZZC  21 c15
M  ZZC  22 c16
M  ZZC  23 c17
M  ZZC  24 n4
M  ZZC  25 c18
M  ZZC  26 s1
M  ZZC  27 c19
M  ZZC  28 c20
M  ZZC  29 c21
M  ZZC  30 c22
M  ZZC  31 o4
M  ZZC  32 c23
M  ZZC  33 c24
M  ZZC  34 h11
M  ZZC  35 h21
M  ZZC  36 h41
M  ZZC  37 h42
M  ZZC  38 h43
M  ZZC  39 h51
M  ZZC  40 h52
M  ZZC  41 h53
M  ZZC  42 h61
M  ZZC  43 h62
M  ZZC  44 h63
M  ZZC  45 h81
M  ZZC  46 h31
M  ZZC  47 h101
M  ZZC  48 h102
M  ZZC  49 h121
M  ZZC  50 h131
M  ZZC  51 h171
M  ZZC  52 h172
M  ZZC  53 h173
M  ZZC  54 h181
M  ZZC  55 h191
M  ZZC  56 h201
M  ZZC  57 h211
M  ZZC  58 h212
M  ZZC  59 h221
M  ZZC  60 h01
M  ZZC  61 h231
M  ZZC  62 h232
M  ZZC  63 h241
M  ZZC  64 h242
M  ZZC  65 h243
M  ZZM   1 7
M  ZZI   1 81
M  ZZM   2 3
M  ZZI   2 121
M  ZZM   3 10
M  ZZI   3 211
M  ZZM   4 1
M  ZZI   4 113
M  ZZM   5 1
M  ZZI   5 110
M  ZZM   6 1
M  ZZI   6 111
M  ZZM   7 1
M  ZZI   7 111
M  ZZM   8 1
M  ZZI   8 111
M  ZZM   9 3
M  ZZI   9 121
M  ZZM  10 7
M  ZZI  10 81
M  ZZM  11 10
M  ZZI  11 192
M  ZZM  12 1
M  ZZI  12 113
M  ZZM  13 3
M  ZZI  13 121
M  ZZM  14 7
M  ZZI  14 81
M  ZZM  15 10
M  ZZI  15 211
M  ZZM  16 1
M  ZZI  16 112
M  ZZM  17 37
M  ZZI  17 124
M  ZZM  18 37
M  ZZI  18 125
M  ZZM  19 37
M  ZZI  19 125
M  ZZM  20 37
M  ZZI  20 124
M  ZZM  21 63
M  ZZI  21 104
M  ZZM  22 64
M  ZZI  22 105
M  ZZM  23 1
M  ZZI  23 111
M  ZZM  24 66
M  ZZI  24 222
M  ZZM  25 63
M  ZZI  25 104
M  ZZM  26 44
M  ZZI  26 248
M  ZZM  27 37
M  ZZI  27 125
M  ZZM  28 37
M  ZZI  28 125
M  ZZM  29 1
M  ZZI  29 112
M  ZZM  30 1
M  ZZI  30 113
M  ZZM  31 6
M  ZZI  31 60
M  ZZM  32 1
M  ZZI  32 112
M  ZZM  33 1
M  ZZI  33 111
M  ZZM  34 28
M  ZZI  34 11
M  ZZM  35 5
M  ZZI  35 1
M  ZZM  36 5
M  ZZI  36 1
M  ZZM  37 5
M  ZZI  37 1
M  ZZM  38 5
M  ZZI  38 1
M  ZZM  39 5
M  ZZI  39 1
M  ZZM  40 5
M  ZZI  40 1
M  ZZM  41 5
M  ZZI  41 1
M  ZZM  42 5
M  ZZI  42 1
M  ZZM  43 5
M  ZZI  43 1
M  ZZM  44 5
M  ZZI  44 1
M  ZZM  45 5
M  ZZI  45 1
M  ZZM  46 28
M  ZZI  46 11
M  ZZM  47 5
M  ZZI  47 1
M  ZZM  48 5
M  ZZI  48 1
M  ZZM  49 5
M  ZZI  49 1
M  ZZM  50 5
M  ZZI  50 1
M  ZZM  51 5
M  ZZI  51 1
M  ZZM  52 5
M  ZZI  52 1
M  ZZM  53 5
M  ZZI  53 1
M  ZZM  54 5
M  ZZI  54 1
M  ZZM  55 5
M  ZZI  55 1
M  ZZM  56 5
M  ZZI  56 1
M  ZZM  57 5
M  ZZI  57 1
M  ZZM  58 5
M  ZZI  58 1
M  ZZM  59 5
M  ZZI  59 1
M  ZZM  60 21
M  ZZI  60 20
M  ZZM  61 5
M  ZZI  61 1
M  ZZM  62 5
M  ZZI  62 1
M  ZZM  63 5
M  ZZI  63 1
M  ZZM  64 5
M  ZZI  64 1
M  ZZM  65 5
M  ZZI  65 1
M  END
> <IX>
1

> <NAME>
VHL_5WUK_5.pdb

> <Score>
-14.818223

> <Natom>
65

> <Nflex>
8

> <Hbond>
-4.949873

> <Hphob>
-6.264103

> <VwInt>
-31.522988

> <Dsolv>
17.61722

> <SolEl>
18.163701

> <Eintl>
5.706559

> <RecConf>
ND

> <projPath>
VHL_maps/

> <NAME_>
VHL_5WUK_5.pdb

$$$$
