VHL_5EHR_6.pdb
  MOLSOFT 04032206403D

 68 70  0  0  1  0  0  0  0  0999 V2000
   18.4544    2.5792   -4.4164 C   0  0  0  0  0  0  0  0  0  0  0  0
   18.1781    1.1976   -4.9397 C   0  0  0  0  0  0  0  0  0  0  0  0
   19.0696    0.4551   -5.3243 O   0  0  0  0  0  0  0  0  0  0  0  0
   16.8317    0.8933   -4.9429 N   0  0  0  0  0  0  0  0  0  0  0  0
   16.3082   -0.3812   -5.4370 C   0  0  2  0  0  0  0  0  0  0  0  0
   15.5065   -0.2050   -6.7622 C   0  0  0  0  0  0  0  0  0  0  0  0
   16.3628    0.5137   -7.8162 C   0  0  0  0  0  0  0  0  0  0  0  0
   14.2034    0.5971   -6.5865 C   0  0  0  0  0  0  0  0  0  0  0  0
   15.1537   -1.5847   -7.3151 C   0  0  0  0  0  0  0  0  0  0  0  0
   15.4707   -0.9684   -4.2832 C   0  0  0  0  0  0  0  0  0  0  0  0
   14.6394   -0.2838   -3.6990 O   0  0  0  0  0  0  0  0  0  0  0  0
   15.7026   -2.2950   -3.9095 N   0  0  0  0  0  0  0  0  0  0  0  0
   14.9526   -2.9036   -2.8182 C   0  0  2  0  0  0  0  0  0  0  0  0
   15.4894   -2.3896   -1.4779 C   0  0  0  0  0  0  0  0  0  0  0  0
   16.6843   -2.3645   -1.2138 O   0  0  0  0  0  0  0  0  0  0  0  0
   14.4991   -1.9440   -0.6181 N   0  0  0  0  0  0  0  0  0  0  0  0
   14.7895   -1.2651    0.6375 C   0  0  1  0  0  0  0  0  0  0  0  0
   13.8597   -0.0586    0.7746 C   0  0  0  0  0  0  0  0  0  0  0  0
   14.7613   -2.2269    1.8150 C   0  0  0  0  0  0  0  0  0  0  0  0
   13.7284   -2.2683    2.7523 C   0  0  0  0  0  0  0  0  0  0  0  0
   13.7564   -3.1596    3.8131 C   0  0  0  0  0  0  0  0  0  0  0  0
   14.8049   -4.0591    3.9766 C   0  0  0  0  0  0  0  0  0  0  0  0
   14.8053   -5.0388    5.0641 C   0  0  0  0  0  0  0  0  0  0  0  0
   13.7843   -5.8263    5.5904 C   0  0  0  0  0  0  0  0  0  0  0  0
   12.3676   -5.8855    5.1586 C   0  0  0  0  0  0  0  0  0  0  0  0
   14.1567   -6.6540    6.6309 N   0  0  0  0  0  0  0  0  0  0  0  0
   15.4348   -6.5001    6.8874 C   0  0  0  0  0  0  0  0  0  0  0  0
   16.2641   -5.3663    5.9222 S   0  0  0  0  0  0  0  0  0  0  0  0
   15.8412   -4.0121    3.0486 C   0  0  0  0  0  0  0  0  0  0  0  0
   15.8172   -3.1162    1.9951 C   0  0  0  0  0  0  0  0  0  0  0  0
   15.1851   -4.3975   -2.9709 C   0  0  0  0  0  0  0  0  0  0  0  0
   16.5331   -4.5070   -3.6644 C   0  0  1  0  0  0  0  0  0  0  0  0
   16.5867   -5.6649   -4.5013 O   0  0  0  0  0  0  0  0  0  0  0  0
   16.6477   -3.2336   -4.4913 C   0  0  0  0  0  0  0  0  0  0  0  0
   17.9434    3.3206   -5.0384 H   0  0  0  0  0  0  0  0  0  0  0  0
   19.5303    2.7757   -4.4400 H   0  0  0  0  0  0  0  0  0  0  0  0
   18.1016    2.6619   -3.3838 H   0  0  0  0  0  0  0  0  0  0  0  0
   16.1726    1.5614   -4.5547 H   0  0  0  0  0  0  0  0  0  0  0  0
   17.1685   -1.0275   -5.6294 H   0  0  0  0  0  0  0  0  0  0  0  0
   16.5921    1.5438   -7.5274 H   0  0  0  0  0  0  0  0  0  0  0  0
   15.8517    0.5609   -8.7818 H   0  0  0  0  0  0  0  0  0  0  0  0
   17.3097   -0.0050   -7.9824 H   0  0  0  0  0  0  0  0  0  0  0  0
   13.4763    0.0720   -5.9599 H   0  0  0  0  0  0  0  0  0  0  0  0
   13.7139    0.7711   -7.5504 H   0  0  0  0  0  0  0  0  0  0  0  0
   14.3855    1.5787   -6.1384 H   0  0  0  0  0  0  0  0  0  0  0  0
   14.6506   -1.5124   -8.2789 H   0  0  0  0  0  0  0  0  0  0  0  0
   14.4918   -2.1235   -6.6357 H   0  0  0  0  0  0  0  0  0  0  0  0
   16.0470   -2.1943   -7.4661 H   0  0  0  0  0  0  0  0  0  0  0  0
   13.8902   -2.6518   -2.9167 H   0  0  0  0  0  0  0  0  0  0  0  0
   13.5249   -2.0733   -0.8672 H   0  0  0  0  0  0  0  0  0  0  0  0
   15.8076   -0.8643    0.5745 H   0  0  0  0  0  0  0  0  0  0  0  0
   14.0443    0.4894    1.7040 H   0  0  0  0  0  0  0  0  0  0  0  0
   12.8044   -0.3503    0.7542 H   0  0  0  0  0  0  0  0  0  0  0  0
   14.0072    0.6377   -0.0572 H   0  0  0  0  0  0  0  0  0  0  0  0
   12.8783   -1.5978    2.6772 H   0  0  0  0  0  0  0  0  0  0  0  0
   12.9377   -3.1379    4.5249 H   0  0  0  0  0  0  0  0  0  0  0  0
   11.7860   -5.1003    5.6487 H   0  0  0  0  0  0  0  0  0  0  0  0
   11.9196   -6.8485    5.4207 H   0  0  0  0  0  0  0  0  0  0  0  0
   12.2685   -5.7644    4.0776 H   0  0  0  0  0  0  0  0  0  0  0  0
   15.9393   -7.0548    7.6658 H   0  0  0  0  0  0  0  0  0  0  0  0
   16.6818   -4.6962    3.1196 H   0  0  0  0  0  0  0  0  0  0  0  0
   16.6494   -3.1204    1.2972 H   0  0  0  0  0  0  0  0  0  0  0  0
   15.1686   -4.9422   -2.0209 H   0  0  0  0  0  0  0  0  0  0  0  0
   14.4070   -4.8384   -3.5967 H   0  0  0  0  0  0  0  0  0  0  0  0
   17.3421   -4.5557   -2.9324 H   0  0  0  0  0  0  0  0  0  0  0  0
   16.3279   -6.4389   -3.9691 H   0  0  0  0  0  0  0  0  0  0  0  0
   16.4009   -3.4003   -5.5425 H   0  0  0  0  0  0  0  0  0  0  0  0
   17.6590   -2.8173   -4.4444 H   0  0  0  0  0  0  0  0  0  0  0  0
  1 35  1  0  0  0  0
  1 36  1  0  0  0  0
  1 37  1  0  0  0  0
  1  2  1  0  0  0  0
  2  3  2  0  0  0  0
  2  4  1  0  0  0  0
  4 38  1  0  0  0  0
  5  4  1  0  0  0  0
  5 39  1  0  0  0  0
  5  6  1  0  0  0  0
  5 10  1  0  0  0  0
  6  7  1  0  0  0  0
  6  8  1  0  0  0  0
  6  9  1  0  0  0  0
  7 40  1  0  0  0  0
  7 41  1  0  0  0  0
  7 42  1  0  0  0  0
  8 43  1  0  0  0  0
  8 44  1  0  0  0  0
  8 45  1  0  0  0  0
  9 46  1  0  0  0  0
  9 47  1  0  0  0  0
  9 48  1  0  0  0  0
 10 11  2  0  0  0  0
 10 12  1  0  0  0  0
 12 34  1  0  0  0  0
 13 12  1  0  0  0  0
 13 31  1  0  0  0  0
 13 49  1  0  0  0  0
 13 14  1  0  0  0  0
 14 15  2  0  0  0  0
 14 16  1  0  0  0  0
 16 50  1  0  0  0  0
 17 16  1  0  0  0  0
 17 51  1  0  0  0  0
 17 18  1  0  0  0  0
 17 19  1  0  0  0  0
 18 52  1  0  0  0  0
 18 53  1  0  0  0  0
 18 54  1  0  0  0  0
 19 20  1  0  0  0  0
 19 30  2  0  0  0  0
 20 55  1  0  0  0  0
 20 21  2  0  0  0  0
 21 56  1  0  0  0  0
 21 22  1  0  0  0  0
 22 29  2  0  0  0  0
 22 23  1  0  0  0  0
 23 24  2  0  0  0  0
 23 28  1  0  0  0  0
 24 25  1  0  0  0  0
 24 26  1  0  0  0  0
 25 57  1  0  0  0  0
 25 58  1  0  0  0  0
 25 59  1  0  0  0  0
 26 27  2  0  0  0  0
 27 60  1  0  0  0  0
 27 28  1  0  0  0  0
 29 61  1  0  0  0  0
 29 30  1  0  0  0  0
 30 62  1  0  0  0  0
 32 31  1  0  0  0  0
 31 63  1  0  0  0  0
 31 64  1  0  0  0  0
 32 34  1  0  0  0  0
 32 65  1  0  0  0  0
 32 33  1  0  0  0  0
 33 66  1  0  0  0  0
 34 67  1  0  0  0  0
 34 68  1  0  0  0  0
M  ZZC   1 c1
M  ZZC   2 c2
M  ZZC   3 o1
M  ZZC   4 n1
M  ZZC   5 c3
M  ZZC   6 c4
M  ZZC   7 c5
M  ZZC   8 c6
M  ZZC   9 c7
M  ZZC  10 c8
M  ZZC  11 o2
M  ZZC  12 n2
M  ZZC  13 c9
M  ZZC  14 c10
M  ZZC  15 o3
M  ZZC  16 n3
M  ZZC  17 c11
M  ZZC  18 c12
M  ZZC  19 c13
M  ZZC  20 c14
M  ZZC  21 c15
M  ZZC  22 c16
M  ZZC  23 c17
M  ZZC  24 c18
M  ZZC  25 c19
M  ZZC  26 n4
M  ZZC  27 c20
M  ZZC  28 s1
M  ZZC  29 c21
M  ZZC  30 c22
M  ZZC  31 c23
M  ZZC  32 c24
M  ZZC  33 o4
M  ZZC  34 c25
M  ZZC  35 h11
M  ZZC  36 h12
M  ZZC  37 h13
M  ZZC  38 h01
M  ZZC  39 h31
M  ZZC  40 h51
M  ZZC  41 h52
M  ZZC  42 h53
M  ZZC  43 h61
M  ZZC  44 h62
M  ZZC  45 h63
M  ZZC  46 h71
M  ZZC  47 h72
M  ZZC  48 h73
M  ZZC  49 h91
M  ZZC  50 h02
M  ZZC  51 h111
M  ZZC  52 h121
M  ZZC  53 h122
M  ZZC  54 h123
M  ZZC  55 h141
M  ZZC  56 h151
M  ZZC  57 h191
M  ZZC  58 h192
M  ZZC  59 h193
M  ZZC  60 h201
M  ZZC  61 h211
M  ZZC  62 h221
M  ZZC  63 h231
M  ZZC  64 h232
M  ZZC  65 h241
M  ZZC  66 h41
M  ZZC  67 h251
M  ZZC  68 h252
M  ZZM   1 1
M  ZZI   1 111
M  ZZM   2 3
M  ZZI   2 121
M  ZZM   3 7
M  ZZI   3 81
M  ZZM   4 10
M  ZZI   4 211
M  ZZM   5 1
M  ZZI   5 113
M  ZZM   6 1
M  ZZI   6 110
M  ZZM   7 1
M  ZZI   7 111
M  ZZM   8 1
M  ZZI   8 111
M  ZZM   9 1
M  ZZI   9 111
M  ZZM  10 3
M  ZZI  10 121
M  ZZM  11 7
M  ZZI  11 81
M  ZZM  12 10
M  ZZI  12 192
M  ZZM  13 1
M  ZZI  13 113
M  ZZM  14 3
M  ZZI  14 121
M  ZZM  15 7
M  ZZI  15 81
M  ZZM  16 10
M  ZZI  16 211
M  ZZM  17 1
M  ZZI  17 113
M  ZZM  18 1
M  ZZI  18 111
M  ZZM  19 37
M  ZZI  19 124
M  ZZM  20 37
M  ZZI  20 125
M  ZZM  21 37
M  ZZI  21 125
M  ZZM  22 37
M  ZZI  22 124
M  ZZM  23 63
M  ZZI  23 104
M  ZZM  24 64
M  ZZI  24 105
M  ZZM  25 1
M  ZZI  25 111
M  ZZM  26 66
M  ZZI  26 222
M  ZZM  27 63
M  ZZI  27 104
M  ZZM  28 44
M  ZZI  28 248
M  ZZM  29 37
M  ZZI  29 125
M  ZZM  30 37
M  ZZI  30 125
M  ZZM  31 1
M  ZZI  31 112
M  ZZM  32 1
M  ZZI  32 113
M  ZZM  33 6
M  ZZI  33 60
M  ZZM  34 1
M  ZZI  34 112
M  ZZM  35 5
M  ZZI  35 1
M  ZZM  36 5
M  ZZI  36 1
M  ZZM  37 5
M  ZZI  37 1
M  ZZM  38 28
M  ZZI  38 11
M  ZZM  39 5
M  ZZI  39 1
M  ZZM  40 5
M  ZZI  40 1
M  ZZM  41 5
M  ZZI  41 1
M  ZZM  42 5
M  ZZI  42 1
M  ZZM  43 5
M  ZZI  43 1
M  ZZM  44 5
M  ZZI  44 1
M  ZZM  45 5
M  ZZI  45 1
M  ZZM  46 5
M  ZZI  46 1
M  ZZM  47 5
M  ZZI  47 1
M  ZZM  48 5
M  ZZI  48 1
M  ZZM  49 5
M  ZZI  49 1
M  ZZM  50 28
M  ZZI  50 11
M  ZZM  51 5
M  ZZI  51 1
M  ZZM  52 5
M  ZZI  52 1
M  ZZM  53 5
M  ZZI  53 1
M  ZZM  54 5
M  ZZI  54 1
M  ZZM  55 5
M  ZZI  55 1
M  ZZM  56 5
M  ZZI  56 1
M  ZZM  57 5
M  ZZI  57 1
M  ZZM  58 5
M  ZZI  58 1
M  ZZM  59 5
M  ZZI  59 1
M  ZZM  60 5
M  ZZI  60 1
M  ZZM  61 5
M  ZZI  61 1
M  ZZM  62 5
M  ZZI  62 1
M  ZZM  63 5
M  ZZI  63 1
M  ZZM  64 5
M  ZZI  64 1
M  ZZM  65 5
M  ZZI  65 1
M  ZZM  66 21
M  ZZI  66 20
M  ZZM  67 5
M  ZZI  67 1
M  ZZM  68 5
M  ZZI  68 1
M  END
> <IX>
1

> <NAME>
VHL_5EHR_6.pdb

> <Score>
-15.668337

> <Natom>
68

> <Nflex>
8

> <Hbond>
-4.330535

> <Hphob>
-6.343938

> <VwInt>
-28.849554

> <Dsolv>
16.518542

> <SolEl>
12.160373

> <Eintl>
5.288593

> <RecConf>
ND

> <projPath>
VHL_maps/

> <NAME_>
VHL_5EHR_6.pdb

$$$$
