VHL_5WUK_4.pdb
  MOLSOFT 04032206423D

 65 67  0  0  1  0  0  0  0  0999 V2000
   16.2100   -6.3864   -5.7317 O   0  0  0  0  0  0  0  0  0  0  0  0
   17.3067   -5.9772   -5.3843 C   0  0  0  0  0  0  0  0  0  0  0  0
   17.5654   -4.7060   -4.9030 N   0  0  0  0  0  0  0  0  0  0  0  0
   16.5543   -3.6509   -4.7802 C   0  0  1  0  0  0  0  0  0  0  0  0
   15.9019   -3.5818   -3.3577 C   0  0  0  0  0  0  0  0  0  0  0  0
   16.8530   -2.9749   -2.3132 C   0  0  0  0  0  0  0  0  0  0  0  0
   15.4981   -4.9765   -2.8555 C   0  0  0  0  0  0  0  0  0  0  0  0
   14.6207   -2.7342   -3.3988 C   0  0  0  0  0  0  0  0  0  0  0  0
   17.2131   -2.3202   -5.1978 C   0  0  0  0  0  0  0  0  0  0  0  0
   18.3487   -2.0395   -4.8428 O   0  0  0  0  0  0  0  0  0  0  0  0
   16.4531   -1.4007   -5.9232 N   0  0  0  0  0  0  0  0  0  0  0  0
   16.9334   -0.0391   -6.1469 C   0  0  2  0  0  0  0  0  0  0  0  0
   16.8714    0.8168   -4.8821 C   0  0  0  0  0  0  0  0  0  0  0  0
   16.1440    0.5620   -3.9319 O   0  0  0  0  0  0  0  0  0  0  0  0
   17.6645    1.9461   -4.9562 N   0  0  0  0  0  0  0  0  0  0  0  0
   17.6937    2.9341   -3.8984 C   0  0  0  0  0  0  0  0  0  0  0  0
   16.9190    4.1720   -4.2707 C   0  0  0  0  0  0  0  0  0  0  0  0
   17.5664    5.2644   -4.8353 C   0  0  0  0  0  0  0  0  0  0  0  0
   16.8667    6.4148   -5.1539 C   0  0  0  0  0  0  0  0  0  0  0  0
   15.4969    6.5093   -4.9232 C   0  0  0  0  0  0  0  0  0  0  0  0
   14.7885    7.7556   -5.1948 C   0  0  0  0  0  0  0  0  0  0  0  0
   14.0235    8.5615   -4.3594 C   0  0  0  0  0  0  0  0  0  0  0  0
   13.6800    8.3066   -2.9406 C   0  0  0  0  0  0  0  0  0  0  0  0
   13.5859    9.7421   -4.9287 N   0  0  0  0  0  0  0  0  0  0  0  0
   13.9561    9.7910   -6.1884 C   0  0  0  0  0  0  0  0  0  0  0  0
   14.8517    8.4589   -6.7660 S   0  0  0  0  0  0  0  0  0  0  0  0
   14.8417    5.4039   -4.3884 C   0  0  0  0  0  0  0  0  0  0  0  0
   15.5425    4.2497   -4.0719 C   0  0  0  0  0  0  0  0  0  0  0  0
   15.9986    0.5586   -7.1938 C   0  0  0  0  0  0  0  0  0  0  0  0
   15.3909   -0.6489   -7.8768 C   0  0  1  0  0  0  0  0  0  0  0  0
   16.2293   -1.0875   -8.9551 O   0  0  0  0  0  0  0  0  0  0  0  0
   15.3263   -1.7019   -6.7807 C   0  0  0  0  0  0  0  0  0  0  0  0
   18.5204   -6.8641   -5.4396 C   0  0  0  0  0  0  0  0  0  0  0  0
   18.5130   -4.4797   -4.6280 H   0  0  0  0  0  0  0  0  0  0  0  0
   15.7944   -3.8979   -5.5093 H   0  0  0  0  0  0  0  0  0  0  0  0
   17.8070   -3.5060   -2.2818 H   0  0  0  0  0  0  0  0  0  0  0  0
   16.4232   -3.0220   -1.3073 H   0  0  0  0  0  0  0  0  0  0  0  0
   17.0681   -1.9213   -2.5140 H   0  0  0  0  0  0  0  0  0  0  0  0
   14.8141   -5.4635   -3.5512 H   0  0  0  0  0  0  0  0  0  0  0  0
   14.9849   -4.9238   -1.8900 H   0  0  0  0  0  0  0  0  0  0  0  0
   16.3613   -5.6326   -2.7156 H   0  0  0  0  0  0  0  0  0  0  0  0
   14.1230   -2.7156   -2.4244 H   0  0  0  0  0  0  0  0  0  0  0  0
   13.9017   -3.1085   -4.1297 H   0  0  0  0  0  0  0  0  0  0  0  0
   14.8351   -1.6959   -3.6718 H   0  0  0  0  0  0  0  0  0  0  0  0
   17.9671   -0.0836   -6.5034 H   0  0  0  0  0  0  0  0  0  0  0  0
   18.2384    2.1116   -5.7758 H   0  0  0  0  0  0  0  0  0  0  0  0
   17.3032    2.5087   -2.9677 H   0  0  0  0  0  0  0  0  0  0  0  0
   18.7452    3.1806   -3.7166 H   0  0  0  0  0  0  0  0  0  0  0  0
   18.6367    5.2334   -5.0180 H   0  0  0  0  0  0  0  0  0  0  0  0
   17.4155    7.2568   -5.5657 H   0  0  0  0  0  0  0  0  0  0  0  0
   12.9293    7.5144   -2.8637 H   0  0  0  0  0  0  0  0  0  0  0  0
   13.2685    9.2034   -2.4684 H   0  0  0  0  0  0  0  0  0  0  0  0
   14.5625    8.0079   -2.3675 H   0  0  0  0  0  0  0  0  0  0  0  0
   13.7180   10.6277   -6.8275 H   0  0  0  0  0  0  0  0  0  0  0  0
   13.7706    5.4325   -4.2107 H   0  0  0  0  0  0  0  0  0  0  0  0
   15.0040    3.4042   -3.6523 H   0  0  0  0  0  0  0  0  0  0  0  0
   15.2081    1.1520   -6.7197 H   0  0  0  0  0  0  0  0  0  0  0  0
   16.5382    1.2117   -7.8876 H   0  0  0  0  0  0  0  0  0  0  0  0
   14.4053   -0.4250   -8.2840 H   0  0  0  0  0  0  0  0  0  0  0  0
   17.1546   -1.0219   -8.6530 H   0  0  0  0  0  0  0  0  0  0  0  0
   15.4010   -2.7160   -7.1813 H   0  0  0  0  0  0  0  0  0  0  0  0
   14.4164   -1.5965   -6.1815 H   0  0  0  0  0  0  0  0  0  0  0  0
   18.5724   -7.3392   -6.4228 H   0  0  0  0  0  0  0  0  0  0  0  0
   18.4316   -7.6339   -4.6690 H   0  0  0  0  0  0  0  0  0  0  0  0
   19.4434   -6.2990   -5.2828 H   0  0  0  0  0  0  0  0  0  0  0  0
  1  2  2  0  0  0  0
  2  3  1  0  0  0  0
  2 33  1  0  0  0  0
  4  3  1  0  0  0  0
  3 34  1  0  0  0  0
  4  5  1  0  0  0  0
  4 35  1  0  0  0  0
  4  9  1  0  0  0  0
  5  6  1  0  0  0  0
  5  7  1  0  0  0  0
  5  8  1  0  0  0  0
  6 36  1  0  0  0  0
  6 37  1  0  0  0  0
  6 38  1  0  0  0  0
  7 39  1  0  0  0  0
  7 40  1  0  0  0  0
  7 41  1  0  0  0  0
  8 42  1  0  0  0  0
  8 43  1  0  0  0  0
  8 44  1  0  0  0  0
  9 10  2  0  0  0  0
  9 11  1  0  0  0  0
 11 32  1  0  0  0  0
 12 11  1  0  0  0  0
 12 29  1  0  0  0  0
 12 45  1  0  0  0  0
 12 13  1  0  0  0  0
 13 14  2  0  0  0  0
 13 15  1  0  0  0  0
 15 46  1  0  0  0  0
 15 16  1  0  0  0  0
 16 47  1  0  0  0  0
 16 48  1  0  0  0  0
 16 17  1  0  0  0  0
 17 18  1  0  0  0  0
 17 28  2  0  0  0  0
 18 49  1  0  0  0  0
 18 19  2  0  0  0  0
 19 50  1  0  0  0  0
 19 20  1  0  0  0  0
 20 27  2  0  0  0  0
 20 21  1  0  0  0  0
 21 22  2  0  0  0  0
 21 26  1  0  0  0  0
 22 23  1  0  0  0  0
 22 24  1  0  0  0  0
 23 51  1  0  0  0  0
 23 52  1  0  0  0  0
 23 53  1  0  0  0  0
 24 25  2  0  0  0  0
 25 54  1  0  0  0  0
 25 26  1  0  0  0  0
 27 55  1  0  0  0  0
 27 28  1  0  0  0  0
 28 56  1  0  0  0  0
 30 29  1  0  0  0  0
 29 57  1  0  0  0  0
 29 58  1  0  0  0  0
 30 32  1  0  0  0  0
 30 59  1  0  0  0  0
 30 31  1  0  0  0  0
 31 60  1  0  0  0  0
 32 61  1  0  0  0  0
 32 62  1  0  0  0  0
 33 63  1  0  0  0  0
 33 64  1  0  0  0  0
 33 65  1  0  0  0  0
M  ZZC   1 o1
M  ZZC   2 c1
M  ZZC   3 n1
M  ZZC   4 c2
M  ZZC   5 c3
M  ZZC   6 c4
M  ZZC   7 c5
M  ZZC   8 c6
M  ZZC   9 c7
M  ZZC  10 o2
M  ZZC  11 n2
M  ZZC  12 c8
M  ZZC  13 c9
M  ZZC  14 o3
M  ZZC  15 n3
M  ZZC  16 c10
M  ZZC  17 c11
M  ZZC  18 c12
M  ZZC  19 c13
M  ZZC  20 c14
M  ZZC  21 c15
M  ZZC  22 c16
M  ZZC  23 c17
M  ZZC  24 n4
M  ZZC  25 c18
M  ZZC  26 s1
M  ZZC  27 c19
M  ZZC  28 c20
M  ZZC  29 c21
M  ZZC  30 c22
M  ZZC  31 o4
M  ZZC  32 c23
M  ZZC  33 c24
M  ZZC  34 h11
M  ZZC  35 h21
M  ZZC  36 h41
M  ZZC  37 h42
M  ZZC  38 h43
M  ZZC  39 h51
M  ZZC  40 h52
M  ZZC  41 h53
M  ZZC  42 h61
M  ZZC  43 h62
M  ZZC  44 h63
M  ZZC  45 h81
M  ZZC  46 h31
M  ZZC  47 h101
M  ZZC  48 h102
M  ZZC  49 h121
M  ZZC  50 h131
M  ZZC  51 h171
M  ZZC  52 h172
M  ZZC  53 h173
M  ZZC  54 h181
M  ZZC  55 h191
M  ZZC  56 h201
M  ZZC  57 h211
M  ZZC  58 h212
M  ZZC  59 h221
M  ZZC  60 h01
M  ZZC  61 h231
M  ZZC  62 h232
M  ZZC  63 h241
M  ZZC  64 h242
M  ZZC  65 h243
M  ZZM   1 7
M  ZZI   1 81
M  ZZM   2 3
M  ZZI   2 121
M  ZZM   3 10
M  ZZI   3 211
M  ZZM   4 1
M  ZZI   4 113
M  ZZM   5 1
M  ZZI   5 110
M  ZZM   6 1
M  ZZI   6 111
M  ZZM   7 1
M  ZZI   7 111
M  ZZM   8 1
M  ZZI   8 111
M  ZZM   9 3
M  ZZI   9 121
M  ZZM  10 7
M  ZZI  10 81
M  ZZM  11 10
M  ZZI  11 192
M  ZZM  12 1
M  ZZI  12 113
M  ZZM  13 3
M  ZZI  13 121
M  ZZM  14 7
M  ZZI  14 81
M  ZZM  15 10
M  ZZI  15 211
M  ZZM  16 1
M  ZZI  16 112
M  ZZM  17 37
M  ZZI  17 124
M  ZZM  18 37
M  ZZI  18 125
M  ZZM  19 37
M  ZZI  19 125
M  ZZM  20 37
M  ZZI  20 124
M  ZZM  21 63
M  ZZI  21 104
M  ZZM  22 64
M  ZZI  22 105
M  ZZM  23 1
M  ZZI  23 111
M  ZZM  24 66
M  ZZI  24 222
M  ZZM  25 63
M  ZZI  25 104
M  ZZM  26 44
M  ZZI  26 248
M  ZZM  27 37
M  ZZI  27 125
M  ZZM  28 37
M  ZZI  28 125
M  ZZM  29 1
M  ZZI  29 112
M  ZZM  30 1
M  ZZI  30 113
M  ZZM  31 6
M  ZZI  31 60
M  ZZM  32 1
M  ZZI  32 112
M  ZZM  33 1
M  ZZI  33 111
M  ZZM  34 28
M  ZZI  34 11
M  ZZM  35 5
M  ZZI  35 1
M  ZZM  36 5
M  ZZI  36 1
M  ZZM  37 5
M  ZZI  37 1
M  ZZM  38 5
M  ZZI  38 1
M  ZZM  39 5
M  ZZI  39 1
M  ZZM  40 5
M  ZZI  40 1
M  ZZM  41 5
M  ZZI  41 1
M  ZZM  42 5
M  ZZI  42 1
M  ZZM  43 5
M  ZZI  43 1
M  ZZM  44 5
M  ZZI  44 1
M  ZZM  45 5
M  ZZI  45 1
M  ZZM  46 28
M  ZZI  46 11
M  ZZM  47 5
M  ZZI  47 1
M  ZZM  48 5
M  ZZI  48 1
M  ZZM  49 5
M  ZZI  49 1
M  ZZM  50 5
M  ZZI  50 1
M  ZZM  51 5
M  ZZI  51 1
M  ZZM  52 5
M  ZZI  52 1
M  ZZM  53 5
M  ZZI  53 1
M  ZZM  54 5
M  ZZI  54 1
M  ZZM  55 5
M  ZZI  55 1
M  ZZM  56 5
M  ZZI  56 1
M  ZZM  57 5
M  ZZI  57 1
M  ZZM  58 5
M  ZZI  58 1
M  ZZM  59 5
M  ZZI  59 1
M  ZZM  60 21
M  ZZI  60 20
M  ZZM  61 5
M  ZZI  61 1
M  ZZM  62 5
M  ZZI  62 1
M  ZZM  63 5
M  ZZI  63 1
M  ZZM  64 5
M  ZZI  64 1
M  ZZM  65 5
M  ZZI  65 1
M  END
> <IX>
1

> <NAME>
VHL_5WUK_4.pdb

> <Score>
-28.691926

> <Natom>
65

> <Nflex>
8

> <Hbond>
-8.784484

> <Hphob>
-6.028253

> <VwInt>
-26.471392

> <Dsolv>
17.935096

> <SolEl>
5.233419

> <Eintl>
3.896269

> <RecConf>
ND

> <projPath>
VHL_maps/

> <NAME_>
VHL_5WUK_4.pdb

$$$$
