VHL_4MKC_8.pdb
  MOLSOFT 04032206403D

 65 67  0  0  1  0  0  0  0  0999 V2000
   13.5939    8.7034   -1.6567 C   0  0  0  0  0  0  0  0  0  0  0  0
   13.1885    7.4115   -2.3109 C   0  0  0  0  0  0  0  0  0  0  0  0
   12.0779    6.9313   -2.1418 O   0  0  0  0  0  0  0  0  0  0  0  0
   14.1989    6.8519   -3.0693 N   0  0  0  0  0  0  0  0  0  0  0  0
   14.0403    5.5991   -3.8156 C   0  0  2  0  0  0  0  0  0  0  0  0
   14.3792    4.3268   -2.9596 C   0  0  0  0  0  0  0  0  0  0  0  0
   13.3658    4.1366   -1.8223 C   0  0  0  0  0  0  0  0  0  0  0  0
   14.2977    3.0671   -3.8370 C   0  0  0  0  0  0  0  0  0  0  0  0
   15.7692    4.3905   -2.2971 C   0  0  0  0  0  0  0  0  0  0  0  0
   14.9164    5.7178   -5.0809 C   0  0  0  0  0  0  0  0  0  0  0  0
   16.0696    5.3108   -5.0984 O   0  0  0  0  0  0  0  0  0  0  0  0
   14.3823    6.3404   -6.2123 N   0  0  0  0  0  0  0  0  0  0  0  0
   15.1440    6.3460   -7.4565 C   0  0  1  0  0  0  0  0  0  0  0  0
   15.0379    4.9964   -8.1814 C   0  0  0  0  0  0  0  0  0  0  0  0
   15.8711    4.6665   -9.0104 O   0  0  0  0  0  0  0  0  0  0  0  0
   13.9068    4.2459   -7.9151 N   0  0  0  0  0  0  0  0  0  0  0  0
   13.6491    2.9485   -8.5098 C   0  0  0  0  0  0  0  0  0  0  0  0
   13.9897    1.8023   -7.5843 C   0  0  0  0  0  0  0  0  0  0  0  0
   12.9935    1.0421   -6.9782 C   0  0  0  0  0  0  0  0  0  0  0  0
   13.3031    0.0110   -6.1077 C   0  0  0  0  0  0  0  0  0  0  0  0
   14.6257   -0.3019   -5.8004 C   0  0  0  0  0  0  0  0  0  0  0  0
   14.9556   -1.3555   -4.8366 C   0  0  0  0  0  0  0  0  0  0  0  0
   15.9148   -2.3639   -4.8658 C   0  0  0  0  0  0  0  0  0  0  0  0
   16.8838   -2.6508   -5.9452 C   0  0  0  0  0  0  0  0  0  0  0  0
   15.9438   -3.1895   -3.7586 N   0  0  0  0  0  0  0  0  0  0  0  0
   15.0322   -2.8067   -2.8962 C   0  0  0  0  0  0  0  0  0  0  0  0
   14.0991   -1.4500   -3.3421 S   0  0  0  0  0  0  0  0  0  0  0  0
   15.6233    0.4373   -6.4337 C   0  0  0  0  0  0  0  0  0  0  0  0
   15.3117    1.4683   -7.3076 C   0  0  0  0  0  0  0  0  0  0  0  0
   14.5688    7.5002   -8.2665 C   0  0  0  0  0  0  0  0  0  0  0  0
   13.1340    7.6021   -7.7846 C   0  0  1  0  0  0  0  0  0  0  0  0
   12.3325    6.7021   -8.5524 O   0  0  0  0  0  0  0  0  0  0  0  0
   13.2046    7.1887   -6.3126 C   0  0  0  0  0  0  0  0  0  0  0  0
   14.4522    8.5330   -0.9993 H   0  0  0  0  0  0  0  0  0  0  0  0
   12.7586    9.1011   -1.0723 H   0  0  0  0  0  0  0  0  0  0  0  0
   13.8718    9.4339   -2.4225 H   0  0  0  0  0  0  0  0  0  0  0  0
   15.1022    7.3150   -3.0928 H   0  0  0  0  0  0  0  0  0  0  0  0
   12.9947    5.5319   -4.1309 H   0  0  0  0  0  0  0  0  0  0  0  0
   13.4467    4.9296   -1.0754 H   0  0  0  0  0  0  0  0  0  0  0  0
   13.5268    3.1913   -1.2934 H   0  0  0  0  0  0  0  0  0  0  0  0
   12.3395    4.1164   -2.1922 H   0  0  0  0  0  0  0  0  0  0  0  0
   14.4055    2.1544   -3.2422 H   0  0  0  0  0  0  0  0  0  0  0  0
   15.0824    3.0392   -4.5963 H   0  0  0  0  0  0  0  0  0  0  0  0
   13.3359    3.0083   -4.3546 H   0  0  0  0  0  0  0  0  0  0  0  0
   16.5869    4.3959   -3.0204 H   0  0  0  0  0  0  0  0  0  0  0  0
   15.9366    3.5209   -1.6531 H   0  0  0  0  0  0  0  0  0  0  0  0
   15.8785    5.2778   -1.6660 H   0  0  0  0  0  0  0  0  0  0  0  0
   16.2058    6.5128   -7.2423 H   0  0  0  0  0  0  0  0  0  0  0  0
   13.1942    4.6453   -7.3136 H   0  0  0  0  0  0  0  0  0  0  0  0
   12.5894    2.9301   -8.7792 H   0  0  0  0  0  0  0  0  0  0  0  0
   14.2104    2.8540   -9.4429 H   0  0  0  0  0  0  0  0  0  0  0  0
   11.9468    1.2469   -7.1743 H   0  0  0  0  0  0  0  0  0  0  0  0
   12.4833   -0.5491   -5.6686 H   0  0  0  0  0  0  0  0  0  0  0  0
   17.2255   -3.6895   -5.9014 H   0  0  0  0  0  0  0  0  0  0  0  0
   17.7606   -2.0055   -5.8489 H   0  0  0  0  0  0  0  0  0  0  0  0
   16.4326   -2.4892   -6.9287 H   0  0  0  0  0  0  0  0  0  0  0  0
   14.8815   -3.3140   -1.9540 H   0  0  0  0  0  0  0  0  0  0  0  0
   16.6710    0.2344   -6.2332 H   0  0  0  0  0  0  0  0  0  0  0  0
   16.1215    2.0281   -7.7661 H   0  0  0  0  0  0  0  0  0  0  0  0
   15.1014    8.4234   -8.0129 H   0  0  0  0  0  0  0  0  0  0  0  0
   14.6493    7.3366   -9.3462 H   0  0  0  0  0  0  0  0  0  0  0  0
   12.7144    8.6056   -7.9055 H   0  0  0  0  0  0  0  0  0  0  0  0
   12.3271    7.0385   -9.4686 H   0  0  0  0  0  0  0  0  0  0  0  0
   12.3142    6.6685   -5.9562 H   0  0  0  0  0  0  0  0  0  0  0  0
   13.3783    8.0578   -5.6692 H   0  0  0  0  0  0  0  0  0  0  0  0
  1 34  1  0  0  0  0
  1 35  1  0  0  0  0
  1 36  1  0  0  0  0
  1  2  1  0  0  0  0
  2  3  2  0  0  0  0
  2  4  1  0  0  0  0
  4 37  1  0  0  0  0
  5  4  1  0  0  0  0
  5 38  1  0  0  0  0
  5  6  1  0  0  0  0
  5 10  1  0  0  0  0
  6  7  1  0  0  0  0
  6  8  1  0  0  0  0
  6  9  1  0  0  0  0
  7 39  1  0  0  0  0
  7 40  1  0  0  0  0
  7 41  1  0  0  0  0
  8 42  1  0  0  0  0
  8 43  1  0  0  0  0
  8 44  1  0  0  0  0
  9 45  1  0  0  0  0
  9 46  1  0  0  0  0
  9 47  1  0  0  0  0
 10 11  2  0  0  0  0
 10 12  1  0  0  0  0
 12 33  1  0  0  0  0
 13 12  1  0  0  0  0
 13 30  1  0  0  0  0
 13 48  1  0  0  0  0
 13 14  1  0  0  0  0
 14 15  2  0  0  0  0
 14 16  1  0  0  0  0
 16 49  1  0  0  0  0
 16 17  1  0  0  0  0
 17 50  1  0  0  0  0
 17 51  1  0  0  0  0
 17 18  1  0  0  0  0
 18 19  1  0  0  0  0
 18 29  2  0  0  0  0
 19 52  1  0  0  0  0
 19 20  2  0  0  0  0
 20 53  1  0  0  0  0
 20 21  1  0  0  0  0
 21 28  2  0  0  0  0
 21 22  1  0  0  0  0
 22 23  2  0  0  0  0
 22 27  1  0  0  0  0
 23 24  1  0  0  0  0
 23 25  1  0  0  0  0
 24 54  1  0  0  0  0
 24 55  1  0  0  0  0
 24 56  1  0  0  0  0
 25 26  2  0  0  0  0
 26 57  1  0  0  0  0
 26 27  1  0  0  0  0
 28 58  1  0  0  0  0
 28 29  1  0  0  0  0
 29 59  1  0  0  0  0
 31 30  1  0  0  0  0
 30 60  1  0  0  0  0
 30 61  1  0  0  0  0
 31 33  1  0  0  0  0
 31 62  1  0  0  0  0
 31 32  1  0  0  0  0
 32 63  1  0  0  0  0
 33 64  1  0  0  0  0
 33 65  1  0  0  0  0
M  ZZC   1 c1
M  ZZC   2 c2
M  ZZC   3 o1
M  ZZC   4 n1
M  ZZC   5 c3
M  ZZC   6 c4
M  ZZC   7 c5
M  ZZC   8 c6
M  ZZC   9 c7
M  ZZC  10 c8
M  ZZC  11 o2
M  ZZC  12 n2
M  ZZC  13 c9
M  ZZC  14 c10
M  ZZC  15 o3
M  ZZC  16 n3
M  ZZC  17 c11
M  ZZC  18 c12
M  ZZC  19 c13
M  ZZC  20 c14
M  ZZC  21 c15
M  ZZC  22 c16
M  ZZC  23 c17
M  ZZC  24 c18
M  ZZC  25 n4
M  ZZC  26 c19
M  ZZC  27 s1
M  ZZC  28 c20
M  ZZC  29 c21
M  ZZC  30 c22
M  ZZC  31 c23
M  ZZC  32 o4
M  ZZC  33 c24
M  ZZC  34 h11
M  ZZC  35 h12
M  ZZC  36 h13
M  ZZC  37 h01
M  ZZC  38 h31
M  ZZC  39 h51
M  ZZC  40 h52
M  ZZC  41 h53
M  ZZC  42 h61
M  ZZC  43 h62
M  ZZC  44 h63
M  ZZC  45 h71
M  ZZC  46 h72
M  ZZC  47 h73
M  ZZC  48 h91
M  ZZC  49 h02
M  ZZC  50 h111
M  ZZC  51 h112
M  ZZC  52 h131
M  ZZC  53 h141
M  ZZC  54 h181
M  ZZC  55 h182
M  ZZC  56 h183
M  ZZC  57 h191
M  ZZC  58 h201
M  ZZC  59 h211
M  ZZC  60 h221
M  ZZC  61 h222
M  ZZC  62 h231
M  ZZC  63 h41
M  ZZC  64 h241
M  ZZC  65 h242
M  ZZM   1 1
M  ZZI   1 111
M  ZZM   2 3
M  ZZI   2 121
M  ZZM   3 7
M  ZZI   3 81
M  ZZM   4 10
M  ZZI   4 211
M  ZZM   5 1
M  ZZI   5 113
M  ZZM   6 1
M  ZZI   6 110
M  ZZM   7 1
M  ZZI   7 111
M  ZZM   8 1
M  ZZI   8 111
M  ZZM   9 1
M  ZZI   9 111
M  ZZM  10 3
M  ZZI  10 121
M  ZZM  11 7
M  ZZI  11 81
M  ZZM  12 10
M  ZZI  12 192
M  ZZM  13 1
M  ZZI  13 113
M  ZZM  14 3
M  ZZI  14 121
M  ZZM  15 7
M  ZZI  15 81
M  ZZM  16 10
M  ZZI  16 211
M  ZZM  17 1
M  ZZI  17 112
M  ZZM  18 37
M  ZZI  18 124
M  ZZM  19 37
M  ZZI  19 125
M  ZZM  20 37
M  ZZI  20 125
M  ZZM  21 37
M  ZZI  21 124
M  ZZM  22 63
M  ZZI  22 104
M  ZZM  23 64
M  ZZI  23 105
M  ZZM  24 1
M  ZZI  24 111
M  ZZM  25 66
M  ZZI  25 222
M  ZZM  26 63
M  ZZI  26 104
M  ZZM  27 44
M  ZZI  27 248
M  ZZM  28 37
M  ZZI  28 125
M  ZZM  29 37
M  ZZI  29 125
M  ZZM  30 1
M  ZZI  30 112
M  ZZM  31 1
M  ZZI  31 113
M  ZZM  32 6
M  ZZI  32 60
M  ZZM  33 1
M  ZZI  33 112
M  ZZM  34 5
M  ZZI  34 1
M  ZZM  35 5
M  ZZI  35 1
M  ZZM  36 5
M  ZZI  36 1
M  ZZM  37 28
M  ZZI  37 11
M  ZZM  38 5
M  ZZI  38 1
M  ZZM  39 5
M  ZZI  39 1
M  ZZM  40 5
M  ZZI  40 1
M  ZZM  41 5
M  ZZI  41 1
M  ZZM  42 5
M  ZZI  42 1
M  ZZM  43 5
M  ZZI  43 1
M  ZZM  44 5
M  ZZI  44 1
M  ZZM  45 5
M  ZZI  45 1
M  ZZM  46 5
M  ZZI  46 1
M  ZZM  47 5
M  ZZI  47 1
M  ZZM  48 5
M  ZZI  48 1
M  ZZM  49 28
M  ZZI  49 11
M  ZZM  50 5
M  ZZI  50 1
M  ZZM  51 5
M  ZZI  51 1
M  ZZM  52 5
M  ZZI  52 1
M  ZZM  53 5
M  ZZI  53 1
M  ZZM  54 5
M  ZZI  54 1
M  ZZM  55 5
M  ZZI  55 1
M  ZZM  56 5
M  ZZI  56 1
M  ZZM  57 5
M  ZZI  57 1
M  ZZM  58 5
M  ZZI  58 1
M  ZZM  59 5
M  ZZI  59 1
M  ZZM  60 5
M  ZZI  60 1
M  ZZM  61 5
M  ZZI  61 1
M  ZZM  62 5
M  ZZI  62 1
M  ZZM  63 21
M  ZZI  63 20
M  ZZM  64 5
M  ZZI  64 1
M  ZZM  65 5
M  ZZI  65 1
M  END
> <IX>
1

> <NAME>
VHL_4MKC_8.pdb

> <Score>
-25.005146

> <Natom>
65

> <Nflex>
8

> <Hbond>
-7.605854

> <Hphob>
-6.729631

> <VwInt>
-25.404085

> <Dsolv>
15.5719

> <SolEl>
9.109675

> <Eintl>
2.765487

> <RecConf>
ND

> <projPath>
VHL_maps/

> <NAME_>
VHL_4MKC_8.pdb

$$$$
