VHL_7M0T_2.pdb
  MOLSOFT 04032206443D

 68 70  0  0  1  0  0  0  0  0999 V2000
   18.4151   -6.9526   -5.3673 C   0  0  0  0  0  0  0  0  0  0  0  0
   17.2296   -6.0281   -5.3223 C   0  0  0  0  0  0  0  0  0  0  0  0
   16.1299   -6.4028   -5.6968 O   0  0  0  0  0  0  0  0  0  0  0  0
   17.5166   -4.7784   -4.8060 N   0  0  0  0  0  0  0  0  0  0  0  0
   16.5330   -3.6969   -4.6938 C   0  0  1  0  0  0  0  0  0  0  0  0
   15.8952   -3.5829   -3.2699 C   0  0  0  0  0  0  0  0  0  0  0  0
   14.6525   -2.6794   -3.3118 C   0  0  0  0  0  0  0  0  0  0  0  0
   15.4367   -4.9571   -2.7578 C   0  0  0  0  0  0  0  0  0  0  0  0
   16.8777   -3.0048   -2.2387 C   0  0  0  0  0  0  0  0  0  0  0  0
   17.2194   -2.3944   -5.1483 C   0  0  0  0  0  0  0  0  0  0  0  0
   18.3643   -2.1309   -4.8106 O   0  0  0  0  0  0  0  0  0  0  0  0
   16.4754   -1.4788   -5.8937 N   0  0  0  0  0  0  0  0  0  0  0  0
   17.0113   -0.1572   -6.1974 C   0  0  2  0  0  0  0  0  0  0  0  0
   17.1018    0.7724   -4.9936 C   0  0  0  0  0  0  0  0  0  0  0  0
   16.3837    0.6736   -4.0079 O   0  0  0  0  0  0  0  0  0  0  0  0
   18.0068    1.7963   -5.1999 N   0  0  0  0  0  0  0  0  0  0  0  0
   18.0372    2.9769   -4.3598 C   0  0  1  0  0  0  0  0  0  0  0  0
   19.4704    3.4696   -4.1725 C   0  0  0  0  0  0  0  0  0  0  0  0
   17.1289    4.0348   -4.9549 C   0  0  0  0  0  0  0  0  0  0  0  0
   17.3986    4.6266   -6.1894 C   0  0  0  0  0  0  0  0  0  0  0  0
   16.5508    5.5823   -6.7226 C   0  0  0  0  0  0  0  0  0  0  0  0
   15.4069    5.9782   -6.0391 C   0  0  0  0  0  0  0  0  0  0  0  0
   14.5570    7.0329   -6.5734 C   0  0  0  0  0  0  0  0  0  0  0  0
   13.8975    7.1516   -7.7910 C   0  0  0  0  0  0  0  0  0  0  0  0
   13.8470    6.1509   -8.8813 C   0  0  0  0  0  0  0  0  0  0  0  0
   13.2287    8.3451   -7.9767 N   0  0  0  0  0  0  0  0  0  0  0  0
   13.3806    9.1027   -6.9139 C   0  0  0  0  0  0  0  0  0  0  0  0
   14.2894    8.4466   -5.6328 S   0  0  0  0  0  0  0  0  0  0  0  0
   15.1169    5.3681   -4.8229 C   0  0  0  0  0  0  0  0  0  0  0  0
   15.9638    4.4107   -4.2918 C   0  0  0  0  0  0  0  0  0  0  0  0
   16.0390    0.4564   -7.1995 C   0  0  0  0  0  0  0  0  0  0  0  0
   15.3926   -0.7449   -7.8509 C   0  0  1  0  0  0  0  0  0  0  0  0
   16.2030   -1.2032   -8.9422 O   0  0  0  0  0  0  0  0  0  0  0  0
   15.3373   -1.7815   -6.7370 C   0  0  0  0  0  0  0  0  0  0  0  0
   19.3581   -6.4033   -5.2916 H   0  0  0  0  0  0  0  0  0  0  0  0
   18.4105   -7.4947   -6.3167 H   0  0  0  0  0  0  0  0  0  0  0  0
   18.3397   -7.6658   -4.5435 H   0  0  0  0  0  0  0  0  0  0  0  0
   18.4648   -4.5874   -4.5047 H   0  0  0  0  0  0  0  0  0  0  0  0
   15.7569   -3.9382   -5.4066 H   0  0  0  0  0  0  0  0  0  0  0  0
   14.9121   -1.6542   -3.5949 H   0  0  0  0  0  0  0  0  0  0  0  0
   14.1617   -2.6297   -2.3348 H   0  0  0  0  0  0  0  0  0  0  0  0
   13.9139   -3.0285   -4.0374 H   0  0  0  0  0  0  0  0  0  0  0  0
   14.9432   -4.8794   -1.7840 H   0  0  0  0  0  0  0  0  0  0  0  0
   16.2723   -5.6509   -2.6323 H   0  0  0  0  0  0  0  0  0  0  0  0
   14.7202   -5.4145   -3.4420 H   0  0  0  0  0  0  0  0  0  0  0  0
   16.4520   -3.0203   -1.2301 H   0  0  0  0  0  0  0  0  0  0  0  0
   17.1373   -1.9642   -2.4551 H   0  0  0  0  0  0  0  0  0  0  0  0
   17.8072   -3.5762   -2.2052 H   0  0  0  0  0  0  0  0  0  0  0  0
   18.0069   -0.2822   -6.6274 H   0  0  0  0  0  0  0  0  0  0  0  0
   18.5687    1.8013   -6.0445 H   0  0  0  0  0  0  0  0  0  0  0  0
   17.6557    2.6958   -3.3719 H   0  0  0  0  0  0  0  0  0  0  0  0
   20.0757    2.7055   -3.6752 H   0  0  0  0  0  0  0  0  0  0  0  0
   19.5014    4.3758   -3.5595 H   0  0  0  0  0  0  0  0  0  0  0  0
   19.9587    3.6936   -5.1265 H   0  0  0  0  0  0  0  0  0  0  0  0
   18.2842    4.3478   -6.7524 H   0  0  0  0  0  0  0  0  0  0  0  0
   16.8072    6.0390   -7.6744 H   0  0  0  0  0  0  0  0  0  0  0  0
   14.8082    6.0945   -9.4001 H   0  0  0  0  0  0  0  0  0  0  0  0
   13.0839    6.4133   -9.6193 H   0  0  0  0  0  0  0  0  0  0  0  0
   13.6041    5.1572   -8.4933 H   0  0  0  0  0  0  0  0  0  0  0  0
   12.9606   10.0925   -6.8369 H   0  0  0  0  0  0  0  0  0  0  0  0
   14.2196    5.6358   -4.2720 H   0  0  0  0  0  0  0  0  0  0  0  0
   15.7025    3.9534   -3.3416 H   0  0  0  0  0  0  0  0  0  0  0  0
   15.2759    1.0565   -6.6899 H   0  0  0  0  0  0  0  0  0  0  0  0
   16.5543    1.1047   -7.9163 H   0  0  0  0  0  0  0  0  0  0  0  0
   14.4007   -0.5110   -8.2370 H   0  0  0  0  0  0  0  0  0  0  0  0
   17.1347   -1.1385   -8.6617 H   0  0  0  0  0  0  0  0  0  0  0  0
   15.4056   -2.8001   -7.1263 H   0  0  0  0  0  0  0  0  0  0  0  0
   14.4345   -1.6659   -6.1292 H   0  0  0  0  0  0  0  0  0  0  0  0
  1 35  1  0  0  0  0
  1 36  1  0  0  0  0
  1 37  1  0  0  0  0
  1  2  1  0  0  0  0
  2  3  2  0  0  0  0
  2  4  1  0  0  0  0
  4 38  1  0  0  0  0
  5  4  1  0  0  0  0
  5 39  1  0  0  0  0
  5  6  1  0  0  0  0
  5 10  1  0  0  0  0
  6  7  1  0  0  0  0
  6  8  1  0  0  0  0
  6  9  1  0  0  0  0
  7 40  1  0  0  0  0
  7 41  1  0  0  0  0
  7 42  1  0  0  0  0
  8 43  1  0  0  0  0
  8 44  1  0  0  0  0
  8 45  1  0  0  0  0
  9 46  1  0  0  0  0
  9 47  1  0  0  0  0
  9 48  1  0  0  0  0
 10 11  2  0  0  0  0
 10 12  1  0  0  0  0
 12 34  1  0  0  0  0
 13 12  1  0  0  0  0
 13 31  1  0  0  0  0
 13 49  1  0  0  0  0
 13 14  1  0  0  0  0
 14 15  2  0  0  0  0
 14 16  1  0  0  0  0
 16 50  1  0  0  0  0
 17 16  1  0  0  0  0
 17 51  1  0  0  0  0
 17 18  1  0  0  0  0
 17 19  1  0  0  0  0
 18 52  1  0  0  0  0
 18 53  1  0  0  0  0
 18 54  1  0  0  0  0
 19 20  1  0  0  0  0
 19 30  2  0  0  0  0
 20 55  1  0  0  0  0
 20 21  2  0  0  0  0
 21 56  1  0  0  0  0
 21 22  1  0  0  0  0
 22 29  2  0  0  0  0
 22 23  1  0  0  0  0
 23 24  2  0  0  0  0
 23 28  1  0  0  0  0
 24 25  1  0  0  0  0
 24 26  1  0  0  0  0
 25 57  1  0  0  0  0
 25 58  1  0  0  0  0
 25 59  1  0  0  0  0
 26 27  2  0  0  0  0
 27 60  1  0  0  0  0
 27 28  1  0  0  0  0
 29 61  1  0  0  0  0
 29 30  1  0  0  0  0
 30 62  1  0  0  0  0
 32 31  1  0  0  0  0
 31 63  1  0  0  0  0
 31 64  1  0  0  0  0
 32 34  1  0  0  0  0
 32 65  1  0  0  0  0
 32 33  1  0  0  0  0
 33 66  1  0  0  0  0
 34 67  1  0  0  0  0
 34 68  1  0  0  0  0
M  ZZC   1 c1
M  ZZC   2 c2
M  ZZC   3 o1
M  ZZC   4 n1
M  ZZC   5 c3
M  ZZC   6 c4
M  ZZC   7 c5
M  ZZC   8 c6
M  ZZC   9 c7
M  ZZC  10 c8
M  ZZC  11 o2
M  ZZC  12 n2
M  ZZC  13 c9
M  ZZC  14 c10
M  ZZC  15 o3
M  ZZC  16 n3
M  ZZC  17 c11
M  ZZC  18 c12
M  ZZC  19 c13
M  ZZC  20 c14
M  ZZC  21 c15
M  ZZC  22 c16
M  ZZC  23 c17
M  ZZC  24 c18
M  ZZC  25 c19
M  ZZC  26 n4
M  ZZC  27 c20
M  ZZC  28 s1
M  ZZC  29 c21
M  ZZC  30 c22
M  ZZC  31 c23
M  ZZC  32 c24
M  ZZC  33 o4
M  ZZC  34 c25
M  ZZC  35 h11
M  ZZC  36 h12
M  ZZC  37 h13
M  ZZC  38 h01
M  ZZC  39 h31
M  ZZC  40 h51
M  ZZC  41 h52
M  ZZC  42 h53
M  ZZC  43 h61
M  ZZC  44 h62
M  ZZC  45 h63
M  ZZC  46 h71
M  ZZC  47 h72
M  ZZC  48 h73
M  ZZC  49 h91
M  ZZC  50 h02
M  ZZC  51 h111
M  ZZC  52 h121
M  ZZC  53 h122
M  ZZC  54 h123
M  ZZC  55 h141
M  ZZC  56 h151
M  ZZC  57 h191
M  ZZC  58 h192
M  ZZC  59 h193
M  ZZC  60 h201
M  ZZC  61 h211
M  ZZC  62 h221
M  ZZC  63 h231
M  ZZC  64 h232
M  ZZC  65 h241
M  ZZC  66 h41
M  ZZC  67 h251
M  ZZC  68 h252
M  ZZM   1 1
M  ZZI   1 111
M  ZZM   2 3
M  ZZI   2 121
M  ZZM   3 7
M  ZZI   3 81
M  ZZM   4 10
M  ZZI   4 211
M  ZZM   5 1
M  ZZI   5 113
M  ZZM   6 1
M  ZZI   6 110
M  ZZM   7 1
M  ZZI   7 111
M  ZZM   8 1
M  ZZI   8 111
M  ZZM   9 1
M  ZZI   9 111
M  ZZM  10 3
M  ZZI  10 121
M  ZZM  11 7
M  ZZI  11 81
M  ZZM  12 10
M  ZZI  12 192
M  ZZM  13 1
M  ZZI  13 113
M  ZZM  14 3
M  ZZI  14 121
M  ZZM  15 7
M  ZZI  15 81
M  ZZM  16 10
M  ZZI  16 211
M  ZZM  17 1
M  ZZI  17 113
M  ZZM  18 1
M  ZZI  18 111
M  ZZM  19 37
M  ZZI  19 124
M  ZZM  20 37
M  ZZI  20 125
M  ZZM  21 37
M  ZZI  21 125
M  ZZM  22 37
M  ZZI  22 124
M  ZZM  23 63
M  ZZI  23 104
M  ZZM  24 64
M  ZZI  24 105
M  ZZM  25 1
M  ZZI  25 111
M  ZZM  26 66
M  ZZI  26 222
M  ZZM  27 63
M  ZZI  27 104
M  ZZM  28 44
M  ZZI  28 248
M  ZZM  29 37
M  ZZI  29 125
M  ZZM  30 37
M  ZZI  30 125
M  ZZM  31 1
M  ZZI  31 112
M  ZZM  32 1
M  ZZI  32 113
M  ZZM  33 6
M  ZZI  33 60
M  ZZM  34 1
M  ZZI  34 112
M  ZZM  35 5
M  ZZI  35 1
M  ZZM  36 5
M  ZZI  36 1
M  ZZM  37 5
M  ZZI  37 1
M  ZZM  38 28
M  ZZI  38 11
M  ZZM  39 5
M  ZZI  39 1
M  ZZM  40 5
M  ZZI  40 1
M  ZZM  41 5
M  ZZI  41 1
M  ZZM  42 5
M  ZZI  42 1
M  ZZM  43 5
M  ZZI  43 1
M  ZZM  44 5
M  ZZI  44 1
M  ZZM  45 5
M  ZZI  45 1
M  ZZM  46 5
M  ZZI  46 1
M  ZZM  47 5
M  ZZI  47 1
M  ZZM  48 5
M  ZZI  48 1
M  ZZM  49 5
M  ZZI  49 1
M  ZZM  50 28
M  ZZI  50 11
M  ZZM  51 5
M  ZZI  51 1
M  ZZM  52 5
M  ZZI  52 1
M  ZZM  53 5
M  ZZI  53 1
M  ZZM  54 5
M  ZZI  54 1
M  ZZM  55 5
M  ZZI  55 1
M  ZZM  56 5
M  ZZI  56 1
M  ZZM  57 5
M  ZZI  57 1
M  ZZM  58 5
M  ZZI  58 1
M  ZZM  59 5
M  ZZI  59 1
M  ZZM  60 5
M  ZZI  60 1
M  ZZM  61 5
M  ZZI  61 1
M  ZZM  62 5
M  ZZI  62 1
M  ZZM  63 5
M  ZZI  63 1
M  ZZM  64 5
M  ZZI  64 1
M  ZZM  65 5
M  ZZI  65 1
M  ZZM  66 21
M  ZZI  66 20
M  ZZM  67 5
M  ZZI  67 1
M  ZZM  68 5
M  ZZI  68 1
M  END
> <IX>
1

> <NAME>
VHL_7M0T_2.pdb

> <Score>
-22.217812

> <Natom>
68

> <Nflex>
8

> <Hbond>
-7.986603

> <Hphob>
-6.343458

> <VwInt>
-30.923063

> <Dsolv>
22.000538

> <SolEl>
12.582204

> <Eintl>
5.928026

> <RecConf>
ND

> <projPath>
VHL_maps/

> <NAME_>
VHL_7M0T_2.pdb

$$$$
