VHL_4CI3_24.pdb
  MOLSOFT 04032206383D

 65 67  0  0  1  0  0  0  0  0999 V2000
   15.9512   -6.3561   -5.6566 O   0  0  0  0  0  0  0  0  0  0  0  0
   17.0759   -6.0332   -5.3121 C   0  0  0  0  0  0  0  0  0  0  0  0
   17.4232   -4.7972   -4.7958 N   0  0  0  0  0  0  0  0  0  0  0  0
   16.4797   -3.6826   -4.6349 C   0  0  1  0  0  0  0  0  0  0  0  0
   15.8936   -3.5557   -3.1918 C   0  0  0  0  0  0  0  0  0  0  0  0
   16.9251   -3.0169   -2.1888 C   0  0  0  0  0  0  0  0  0  0  0  0
   14.6825   -2.6086   -3.1942 C   0  0  0  0  0  0  0  0  0  0  0  0
   15.4035   -4.9185   -2.6779 C   0  0  0  0  0  0  0  0  0  0  0  0
   17.1894   -2.4004   -5.1132 C   0  0  0  0  0  0  0  0  0  0  0  0
   18.3462   -2.1616   -4.7985 O   0  0  0  0  0  0  0  0  0  0  0  0
   16.4561   -1.4780   -5.8609 N   0  0  0  0  0  0  0  0  0  0  0  0
   17.0271   -0.1846   -6.2168 C   0  0  2  0  0  0  0  0  0  0  0  0
   17.2210    0.7892   -5.0622 C   0  0  0  0  0  0  0  0  0  0  0  0
   16.5854    0.7404   -4.0179 O   0  0  0  0  0  0  0  0  0  0  0  0
   18.1140    1.7918   -5.3896 N   0  0  0  0  0  0  0  0  0  0  0  0
   18.2379    3.0008   -4.6100 C   0  0  0  0  0  0  0  0  0  0  0  0
   17.2962    4.0514   -5.1399 C   0  0  0  0  0  0  0  0  0  0  0  0
   16.0806    4.2998   -4.5100 C   0  0  0  0  0  0  0  0  0  0  0  0
   15.2048    5.2489   -5.0092 C   0  0  0  0  0  0  0  0  0  0  0  0
   15.5185    5.9682   -6.1580 C   0  0  0  0  0  0  0  0  0  0  0  0
   14.6295    7.0061   -6.6576 C   0  0  0  0  0  0  0  0  0  0  0  0
   13.9372    7.1192   -7.8566 C   0  0  0  0  0  0  0  0  0  0  0  0
   13.8939    6.1294   -8.9566 C   0  0  0  0  0  0  0  0  0  0  0  0
   13.2258    8.2928   -8.0093 N   0  0  0  0  0  0  0  0  0  0  0  0
   13.3786    9.0398   -6.9391 C   0  0  0  0  0  0  0  0  0  0  0  0
   14.3400    8.3958   -5.6896 S   0  0  0  0  0  0  0  0  0  0  0  0
   16.7164    5.6957   -6.8097 C   0  0  0  0  0  0  0  0  0  0  0  0
   17.5951    4.7515   -6.3059 C   0  0  0  0  0  0  0  0  0  0  0  0
   16.0389    0.4368   -7.1980 C   0  0  0  0  0  0  0  0  0  0  0  0
   15.3670   -0.7616   -7.8253 C   0  0  1  0  0  0  0  0  0  0  0  0
   16.1626   -1.2439   -8.9176 O   0  0  0  0  0  0  0  0  0  0  0  0
   15.3100   -1.7804   -6.6946 C   0  0  0  0  0  0  0  0  0  0  0  0
   18.2342   -6.9782   -5.4558 C   0  0  0  0  0  0  0  0  0  0  0  0
   18.3913   -4.6399   -4.5413 H   0  0  0  0  0  0  0  0  0  0  0  0
   15.6590   -3.8897   -5.3077 H   0  0  0  0  0  0  0  0  0  0  0  0
   17.8338   -3.6205   -2.1874 H   0  0  0  0  0  0  0  0  0  0  0  0
   16.5300   -3.0238   -1.1678 H   0  0  0  0  0  0  0  0  0  0  0  0
   17.2139   -1.9846   -2.4084 H   0  0  0  0  0  0  0  0  0  0  0  0
   14.2251   -2.5426   -2.2019 H   0  0  0  0  0  0  0  0  0  0  0  0
   13.9088   -2.9321   -3.8954 H   0  0  0  0  0  0  0  0  0  0  0  0
   14.9690   -1.5927   -3.4853 H   0  0  0  0  0  0  0  0  0  0  0  0
   14.6531   -5.3473   -3.3454 H   0  0  0  0  0  0  0  0  0  0  0  0
   14.9413   -4.8329   -1.6897 H   0  0  0  0  0  0  0  0  0  0  0  0
   16.2194   -5.6401   -2.5833 H   0  0  0  0  0  0  0  0  0  0  0  0
   17.9951   -0.3653   -6.6860 H   0  0  0  0  0  0  0  0  0  0  0  0
   18.6343    1.7370   -6.2590 H   0  0  0  0  0  0  0  0  0  0  0  0
   18.0352    2.7853   -3.5553 H   0  0  0  0  0  0  0  0  0  0  0  0
   19.2754    3.3440   -4.6830 H   0  0  0  0  0  0  0  0  0  0  0  0
   15.8053    3.7479   -3.6154 H   0  0  0  0  0  0  0  0  0  0  0  0
   14.2670    5.4235   -4.4891 H   0  0  0  0  0  0  0  0  0  0  0  0
   14.8824    6.0026   -9.4071 H   0  0  0  0  0  0  0  0  0  0  0  0
   13.2065    6.4480   -9.7454 H   0  0  0  0  0  0  0  0  0  0  0  0
   13.5516    5.1564   -8.5918 H   0  0  0  0  0  0  0  0  0  0  0  0
   12.9271   10.0137   -6.8382 H   0  0  0  0  0  0  0  0  0  0  0  0
   16.9870    6.2396   -7.7105 H   0  0  0  0  0  0  0  0  0  0  0  0
   18.5267    4.5656   -6.8326 H   0  0  0  0  0  0  0  0  0  0  0  0
   15.2945    1.0466   -6.6722 H   0  0  0  0  0  0  0  0  0  0  0  0
   16.5433    1.0752   -7.9314 H   0  0  0  0  0  0  0  0  0  0  0  0
   14.3740   -0.5198   -8.2041 H   0  0  0  0  0  0  0  0  0  0  0  0
   17.0971   -1.1928   -8.6438 H   0  0  0  0  0  0  0  0  0  0  0  0
   15.3699   -2.8037   -7.0725 H   0  0  0  0  0  0  0  0  0  0  0  0
   14.4117   -1.6511   -6.0823 H   0  0  0  0  0  0  0  0  0  0  0  0
   18.7544   -6.7796   -6.3971 H   0  0  0  0  0  0  0  0  0  0  0  0
   17.8677   -8.0089   -5.4495 H   0  0  0  0  0  0  0  0  0  0  0  0
   18.9288   -6.8545   -4.6273 H   0  0  0  0  0  0  0  0  0  0  0  0
  1  2  2  0  0  0  0
  2  3  1  0  0  0  0
  2 33  1  0  0  0  0
  4  3  1  0  0  0  0
  3 34  1  0  0  0  0
  4  5  1  0  0  0  0
  4 35  1  0  0  0  0
  4  9  1  0  0  0  0
  5  6  1  0  0  0  0
  5  7  1  0  0  0  0
  5  8  1  0  0  0  0
  6 36  1  0  0  0  0
  6 37  1  0  0  0  0
  6 38  1  0  0  0  0
  7 39  1  0  0  0  0
  7 40  1  0  0  0  0
  7 41  1  0  0  0  0
  8 42  1  0  0  0  0
  8 43  1  0  0  0  0
  8 44  1  0  0  0  0
  9 10  2  0  0  0  0
  9 11  1  0  0  0  0
 11 32  1  0  0  0  0
 12 11  1  0  0  0  0
 12 29  1  0  0  0  0
 12 45  1  0  0  0  0
 12 13  1  0  0  0  0
 13 14  2  0  0  0  0
 13 15  1  0  0  0  0
 15 46  1  0  0  0  0
 15 16  1  0  0  0  0
 16 47  1  0  0  0  0
 16 48  1  0  0  0  0
 16 17  1  0  0  0  0
 17 18  1  0  0  0  0
 17 28  2  0  0  0  0
 18 49  1  0  0  0  0
 18 19  2  0  0  0  0
 19 50  1  0  0  0  0
 19 20  1  0  0  0  0
 20 27  2  0  0  0  0
 20 21  1  0  0  0  0
 21 22  2  0  0  0  0
 21 26  1  0  0  0  0
 22 23  1  0  0  0  0
 22 24  1  0  0  0  0
 23 51  1  0  0  0  0
 23 52  1  0  0  0  0
 23 53  1  0  0  0  0
 24 25  2  0  0  0  0
 25 54  1  0  0  0  0
 25 26  1  0  0  0  0
 27 55  1  0  0  0  0
 27 28  1  0  0  0  0
 28 56  1  0  0  0  0
 30 29  1  0  0  0  0
 29 57  1  0  0  0  0
 29 58  1  0  0  0  0
 30 32  1  0  0  0  0
 30 59  1  0  0  0  0
 30 31  1  0  0  0  0
 31 60  1  0  0  0  0
 32 61  1  0  0  0  0
 32 62  1  0  0  0  0
 33 63  1  0  0  0  0
 33 64  1  0  0  0  0
 33 65  1  0  0  0  0
M  ZZC   1 o1
M  ZZC   2 c1
M  ZZC   3 n1
M  ZZC   4 c2
M  ZZC   5 c3
M  ZZC   6 c4
M  ZZC   7 c5
M  ZZC   8 c6
M  ZZC   9 c7
M  ZZC  10 o2
M  ZZC  11 n2
M  ZZC  12 c8
M  ZZC  13 c9
M  ZZC  14 o3
M  ZZC  15 n3
M  ZZC  16 c10
M  ZZC  17 c11
M  ZZC  18 c12
M  ZZC  19 c13
M  ZZC  20 c14
M  ZZC  21 c15
M  ZZC  22 c16
M  ZZC  23 c17
M  ZZC  24 n4
M  ZZC  25 c18
M  ZZC  26 s1
M  ZZC  27 c19
M  ZZC  28 c20
M  ZZC  29 c21
M  ZZC  30 c22
M  ZZC  31 o4
M  ZZC  32 c23
M  ZZC  33 c24
M  ZZC  34 h11
M  ZZC  35 h21
M  ZZC  36 h41
M  ZZC  37 h42
M  ZZC  38 h43
M  ZZC  39 h51
M  ZZC  40 h52
M  ZZC  41 h53
M  ZZC  42 h61
M  ZZC  43 h62
M  ZZC  44 h63
M  ZZC  45 h81
M  ZZC  46 h31
M  ZZC  47 h101
M  ZZC  48 h102
M  ZZC  49 h121
M  ZZC  50 h131
M  ZZC  51 h171
M  ZZC  52 h172
M  ZZC  53 h173
M  ZZC  54 h181
M  ZZC  55 h191
M  ZZC  56 h201
M  ZZC  57 h211
M  ZZC  58 h212
M  ZZC  59 h221
M  ZZC  60 h01
M  ZZC  61 h231
M  ZZC  62 h232
M  ZZC  63 h241
M  ZZC  64 h242
M  ZZC  65 h243
M  ZZM   1 7
M  ZZI   1 81
M  ZZM   2 3
M  ZZI   2 121
M  ZZM   3 10
M  ZZI   3 211
M  ZZM   4 1
M  ZZI   4 113
M  ZZM   5 1
M  ZZI   5 110
M  ZZM   6 1
M  ZZI   6 111
M  ZZM   7 1
M  ZZI   7 111
M  ZZM   8 1
M  ZZI   8 111
M  ZZM   9 3
M  ZZI   9 121
M  ZZM  10 7
M  ZZI  10 81
M  ZZM  11 10
M  ZZI  11 192
M  ZZM  12 1
M  ZZI  12 113
M  ZZM  13 3
M  ZZI  13 121
M  ZZM  14 7
M  ZZI  14 81
M  ZZM  15 10
M  ZZI  15 211
M  ZZM  16 1
M  ZZI  16 112
M  ZZM  17 37
M  ZZI  17 124
M  ZZM  18 37
M  ZZI  18 125
M  ZZM  19 37
M  ZZI  19 125
M  ZZM  20 37
M  ZZI  20 124
M  ZZM  21 63
M  ZZI  21 104
M  ZZM  22 64
M  ZZI  22 105
M  ZZM  23 1
M  ZZI  23 111
M  ZZM  24 66
M  ZZI  24 222
M  ZZM  25 63
M  ZZI  25 104
M  ZZM  26 44
M  ZZI  26 248
M  ZZM  27 37
M  ZZI  27 125
M  ZZM  28 37
M  ZZI  28 125
M  ZZM  29 1
M  ZZI  29 112
M  ZZM  30 1
M  ZZI  30 113
M  ZZM  31 6
M  ZZI  31 60
M  ZZM  32 1
M  ZZI  32 112
M  ZZM  33 1
M  ZZI  33 111
M  ZZM  34 28
M  ZZI  34 11
M  ZZM  35 5
M  ZZI  35 1
M  ZZM  36 5
M  ZZI  36 1
M  ZZM  37 5
M  ZZI  37 1
M  ZZM  38 5
M  ZZI  38 1
M  ZZM  39 5
M  ZZI  39 1
M  ZZM  40 5
M  ZZI  40 1
M  ZZM  41 5
M  ZZI  41 1
M  ZZM  42 5
M  ZZI  42 1
M  ZZM  43 5
M  ZZI  43 1
M  ZZM  44 5
M  ZZI  44 1
M  ZZM  45 5
M  ZZI  45 1
M  ZZM  46 28
M  ZZI  46 11
M  ZZM  47 5
M  ZZI  47 1
M  ZZM  48 5
M  ZZI  48 1
M  ZZM  49 5
M  ZZI  49 1
M  ZZM  50 5
M  ZZI  50 1
M  ZZM  51 5
M  ZZI  51 1
M  ZZM  52 5
M  ZZI  52 1
M  ZZM  53 5
M  ZZI  53 1
M  ZZM  54 5
M  ZZI  54 1
M  ZZM  55 5
M  ZZI  55 1
M  ZZM  56 5
M  ZZI  56 1
M  ZZM  57 5
M  ZZI  57 1
M  ZZM  58 5
M  ZZI  58 1
M  ZZM  59 5
M  ZZI  59 1
M  ZZM  60 21
M  ZZI  60 20
M  ZZM  61 5
M  ZZI  61 1
M  ZZM  62 5
M  ZZI  62 1
M  ZZM  63 5
M  ZZI  63 1
M  ZZM  64 5
M  ZZI  64 1
M  ZZM  65 5
M  ZZI  65 1
M  END
> <IX>
1

> <NAME>
VHL_4CI3_24.pdb

> <Score>
-21.743698

> <Natom>
65

> <Nflex>
8

> <Hbond>
-7.408339

> <Hphob>
-6.449853

> <VwInt>
-29.60636

> <Dsolv>
21.390688

> <SolEl>
11.237577

> <Eintl>
4.445576

> <RecConf>
ND

> <projPath>
VHL_maps/

> <NAME_>
VHL_4CI3_24.pdb

$$$$
