VHL_5F1H_1.pdb
  MOLSOFT 04032206413D

 70 73  0  0  1  0  0  0  0  0999 V2000
   18.7455   -5.3881   -5.9387 F   0  0  0  0  0  0  0  0  0  0  0  0
   17.7029   -5.9663   -5.2204 C   0  0  0  0  0  0  0  0  0  0  0  0
   16.8239   -5.0213   -4.4653 C   0  0  0  0  0  0  0  0  0  0  0  0
   15.7553   -5.3826   -3.9942 O   0  0  0  0  0  0  0  0  0  0  0  0
   17.3051   -3.7315   -4.3719 N   0  0  0  0  0  0  0  0  0  0  0  0
   16.4647   -2.6084   -3.9364 C   0  0  1  0  0  0  0  0  0  0  0  0
   16.6720   -2.1668   -2.4546 C   0  0  0  0  0  0  0  0  0  0  0  0
   18.0739   -1.5973   -2.1998 C   0  0  0  0  0  0  0  0  0  0  0  0
   15.6445   -1.0903   -2.0724 C   0  0  0  0  0  0  0  0  0  0  0  0
   16.4521   -3.3596   -1.5100 C   0  0  0  0  0  0  0  0  0  0  0  0
   16.7451   -1.5042   -4.9773 C   0  0  0  0  0  0  0  0  0  0  0  0
   17.8948   -1.1892   -5.2616 O   0  0  0  0  0  0  0  0  0  0  0  0
   15.6419   -0.9357   -5.6167 N   0  0  0  0  0  0  0  0  0  0  0  0
   15.8025   -0.0944   -6.7971 C   0  0  2  0  0  0  0  0  0  0  0  0
   16.1156    1.3627   -6.4357 C   0  0  0  0  0  0  0  0  0  0  0  0
   15.3087    2.1048   -5.8923 O   0  0  0  0  0  0  0  0  0  0  0  0
   17.4076    1.7373   -6.7492 N   0  0  0  0  0  0  0  0  0  0  0  0
   17.9378    3.0566   -6.4496 C   0  0  0  0  0  0  0  0  0  0  0  0
   19.3351    3.2911   -6.9819 C   0  0  0  0  0  0  0  0  0  0  0  0
   20.2847    2.2792   -7.0356 C   0  0  0  0  0  0  0  0  0  0  0  0
   19.9468    1.0178   -6.6025 O   0  0  0  0  0  0  0  0  0  0  0  0
   21.5678    2.4839   -7.4981 C   0  0  0  0  0  0  0  0  0  0  0  0
   21.9691    3.7452   -7.8991 C   0  0  0  0  0  0  0  0  0  0  0  0
   23.3431    3.9473   -8.3272 C   0  0  0  0  0  0  0  0  0  0  0  0
   24.4773    4.2469   -7.5864 C   0  0  0  0  0  0  0  0  0  0  0  0
   24.5430    4.5033   -6.1296 C   0  0  0  0  0  0  0  0  0  0  0  0
   25.6531    4.2820   -8.3089 N   0  0  0  0  0  0  0  0  0  0  0  0
   25.4018    4.0296   -9.5740 C   0  0  0  0  0  0  0  0  0  0  0  0
   23.7682    3.7437   -9.9780 S   0  0  0  0  0  0  0  0  0  0  0  0
   21.0428    4.7820   -7.8475 C   0  0  0  0  0  0  0  0  0  0  0  0
   19.7457    4.5576   -7.3973 C   0  0  0  0  0  0  0  0  0  0  0  0
   14.4659   -0.2217   -7.5085 C   0  0  0  0  0  0  0  0  0  0  0  0
   13.4554   -0.4418   -6.3942 C   0  0  1  0  0  0  0  0  0  0  0  0
   12.3328   -1.2002   -6.8470 O   0  0  0  0  0  0  0  0  0  0  0  0
   14.2417   -1.2388   -5.3699 C   0  0  0  0  0  0  0  0  0  0  0  0
   17.1213   -7.2040   -5.8660 C   0  0  0  0  0  0  0  0  0  0  0  0
   18.0076   -7.3330   -4.6727 C   0  0  0  0  0  0  0  0  0  0  0  0
   18.2295   -3.5366   -4.7501 H   0  0  0  0  0  0  0  0  0  0  0  0
   15.4321   -2.9491   -4.0364 H   0  0  0  0  0  0  0  0  0  0  0  0
   18.2284   -1.3733   -1.1395 H   0  0  0  0  0  0  0  0  0  0  0  0
   18.2468   -0.6663   -2.7473 H   0  0  0  0  0  0  0  0  0  0  0  0
   18.8470   -2.3064   -2.4928 H   0  0  0  0  0  0  0  0  0  0  0  0
   15.7472   -0.1992   -2.7005 H   0  0  0  0  0  0  0  0  0  0  0  0
   15.7724   -0.7653   -1.0346 H   0  0  0  0  0  0  0  0  0  0  0  0
   14.6165   -1.4464   -2.1905 H   0  0  0  0  0  0  0  0  0  0  0  0
   16.5215   -3.0586   -0.4597 H   0  0  0  0  0  0  0  0  0  0  0  0
   17.1976   -4.1424   -1.6638 H   0  0  0  0  0  0  0  0  0  0  0  0
   15.4634   -3.8086   -1.6527 H   0  0  0  0  0  0  0  0  0  0  0  0
   16.6062   -0.4936   -7.4274 H   0  0  0  0  0  0  0  0  0  0  0  0
   18.0621    1.0240   -7.0657 H   0  0  0  0  0  0  0  0  0  0  0  0
   17.2399    3.7896   -6.8696 H   0  0  0  0  0  0  0  0  0  0  0  0
   17.9329    3.1811   -5.3614 H   0  0  0  0  0  0  0  0  0  0  0  0
   20.3791    0.3911   -7.2101 H   0  0  0  0  0  0  0  0  0  0  0  0
   22.2630    1.6536   -7.5335 H   0  0  0  0  0  0  0  0  0  0  0  0
   23.9663    5.3947   -5.8669 H   0  0  0  0  0  0  0  0  0  0  0  0
   25.5752    4.6607   -5.8030 H   0  0  0  0  0  0  0  0  0  0  0  0
   24.1433    3.6563   -5.5662 H   0  0  0  0  0  0  0  0  0  0  0  0
   26.1790    4.0039  -10.3244 H   0  0  0  0  0  0  0  0  0  0  0  0
   21.3296    5.7829   -8.1568 H   0  0  0  0  0  0  0  0  0  0  0  0
   19.0499    5.3913   -7.3677 H   0  0  0  0  0  0  0  0  0  0  0  0
   14.2115    0.6393   -8.1359 H   0  0  0  0  0  0  0  0  0  0  0  0
   14.4943   -1.1039   -8.1549 H   0  0  0  0  0  0  0  0  0  0  0  0
   13.1034    0.5061   -5.9727 H   0  0  0  0  0  0  0  0  0  0  0  0
   11.8700   -0.6859   -7.5338 H   0  0  0  0  0  0  0  0  0  0  0  0
   14.0733   -2.3143   -5.4793 H   0  0  0  0  0  0  0  0  0  0  0  0
   13.9690   -0.9583   -4.3498 H   0  0  0  0  0  0  0  0  0  0  0  0
   16.0718   -7.4215   -5.7349 H   0  0  0  0  0  0  0  0  0  0  0  0
   17.5287   -7.5452   -6.8063 H   0  0  0  0  0  0  0  0  0  0  0  0
   18.9987   -7.7300   -4.8447 H   0  0  0  0  0  0  0  0  0  0  0  0
   17.5481   -7.6328   -3.7415 H   0  0  0  0  0  0  0  0  0  0  0  0
  2  1  1  0  0  0  0
  2 36  1  0  0  0  0
  2  3  1  0  0  0  0
  2 37  1  0  0  0  0
  3  4  2  0  0  0  0
  3  5  1  0  0  0  0
  5 38  1  0  0  0  0
  6  5  1  0  0  0  0
  6 39  1  0  0  0  0
  6  7  1  0  0  0  0
  6 11  1  0  0  0  0
  7  8  1  0  0  0  0
  7  9  1  0  0  0  0
  7 10  1  0  0  0  0
  8 40  1  0  0  0  0
  8 41  1  0  0  0  0
  8 42  1  0  0  0  0
  9 43  1  0  0  0  0
  9 44  1  0  0  0  0
  9 45  1  0  0  0  0
 10 46  1  0  0  0  0
 10 47  1  0  0  0  0
 10 48  1  0  0  0  0
 11 12  2  0  0  0  0
 11 13  1  0  0  0  0
 13 35  1  0  0  0  0
 14 13  1  0  0  0  0
 14 32  1  0  0  0  0
 14 49  1  0  0  0  0
 14 15  1  0  0  0  0
 15 16  2  0  0  0  0
 15 17  1  0  0  0  0
 17 50  1  0  0  0  0
 17 18  1  0  0  0  0
 18 51  1  0  0  0  0
 18 52  1  0  0  0  0
 18 19  1  0  0  0  0
 19 20  2  0  0  0  0
 19 31  1  0  0  0  0
 20 21  1  0  0  0  0
 20 22  1  0  0  0  0
 21 53  1  0  0  0  0
 22 54  1  0  0  0  0
 22 23  2  0  0  0  0
 23 30  1  0  0  0  0
 23 24  1  0  0  0  0
 24 25  2  0  0  0  0
 24 29  1  0  0  0  0
 25 26  1  0  0  0  0
 25 27  1  0  0  0  0
 26 55  1  0  0  0  0
 26 56  1  0  0  0  0
 26 57  1  0  0  0  0
 27 28  2  0  0  0  0
 28 58  1  0  0  0  0
 28 29  1  0  0  0  0
 30 59  1  0  0  0  0
 30 31  2  0  0  0  0
 31 60  1  0  0  0  0
 33 32  1  0  0  0  0
 32 61  1  0  0  0  0
 32 62  1  0  0  0  0
 33 35  1  0  0  0  0
 33 63  1  0  0  0  0
 33 34  1  0  0  0  0
 34 64  1  0  0  0  0
 35 65  1  0  0  0  0
 35 66  1  0  0  0  0
 36 67  1  0  0  0  0
 36 68  1  0  0  0  0
 36 37  1  0  0  0  0
 37 69  1  0  0  0  0
 37 70  1  0  0  0  0
M  ZZC   1 f1
M  ZZC   2 c1
M  ZZC   3 c2
M  ZZC   4 o1
M  ZZC   5 n1
M  ZZC   6 c3
M  ZZC   7 c4
M  ZZC   8 c5
M  ZZC   9 c6
M  ZZC  10 c7
M  ZZC  11 c8
M  ZZC  12 o2
M  ZZC  13 n2
M  ZZC  14 c9
M  ZZC  15 c10
M  ZZC  16 o3
M  ZZC  17 n3
M  ZZC  18 c11
M  ZZC  19 c12
M  ZZC  20 c13
M  ZZC  21 o4
M  ZZC  22 c14
M  ZZC  23 c15
M  ZZC  24 c16
M  ZZC  25 c17
M  ZZC  26 c18
M  ZZC  27 n4
M  ZZC  28 c19
M  ZZC  29 s1
M  ZZC  30 c20
M  ZZC  31 c21
M  ZZC  32 c22
M  ZZC  33 c23
M  ZZC  34 o5
M  ZZC  35 c24
M  ZZC  36 c25
M  ZZC  37 c26
M  ZZC  38 h11
M  ZZC  39 h31
M  ZZC  40 h51
M  ZZC  41 h52
M  ZZC  42 h53
M  ZZC  43 h61
M  ZZC  44 h62
M  ZZC  45 h63
M  ZZC  46 h71
M  ZZC  47 h72
M  ZZC  48 h73
M  ZZC  49 h91
M  ZZC  50 h01
M  ZZC  51 h111
M  ZZC  52 h112
M  ZZC  53 h41
M  ZZC  54 h141
M  ZZC  55 h181
M  ZZC  56 h182
M  ZZC  57 h183
M  ZZC  58 h191
M  ZZC  59 h201
M  ZZC  60 h211
M  ZZC  61 h221
M  ZZC  62 h222
M  ZZC  63 h231
M  ZZC  64 h02
M  ZZC  65 h241
M  ZZC  66 h242
M  ZZC  67 h251
M  ZZC  68 h252
M  ZZC  69 h261
M  ZZC  70 h262
M  ZZM   1 11
M  ZZI   1 90
M  ZZM   2 22
M  ZZI   2 109
M  ZZM   3 3
M  ZZI   3 121
M  ZZM   4 7
M  ZZI   4 81
M  ZZM   5 10
M  ZZI   5 211
M  ZZM   6 1
M  ZZI   6 113
M  ZZM   7 1
M  ZZI   7 110
M  ZZM   8 1
M  ZZI   8 111
M  ZZM   9 1
M  ZZI   9 111
M  ZZM  10 1
M  ZZI  10 111
M  ZZM  11 3
M  ZZI  11 121
M  ZZM  12 7
M  ZZI  12 81
M  ZZM  13 10
M  ZZI  13 192
M  ZZM  14 1
M  ZZI  14 113
M  ZZM  15 3
M  ZZI  15 121
M  ZZM  16 7
M  ZZI  16 81
M  ZZM  17 10
M  ZZI  17 211
M  ZZM  18 1
M  ZZI  18 112
M  ZZM  19 37
M  ZZI  19 124
M  ZZM  20 37
M  ZZI  20 124
M  ZZM  21 6
M  ZZI  21 62
M  ZZM  22 37
M  ZZI  22 125
M  ZZM  23 37
M  ZZI  23 124
M  ZZM  24 63
M  ZZI  24 104
M  ZZM  25 64
M  ZZI  25 105
M  ZZM  26 1
M  ZZI  26 111
M  ZZM  27 66
M  ZZI  27 222
M  ZZM  28 63
M  ZZI  28 104
M  ZZM  29 44
M  ZZI  29 248
M  ZZM  30 37
M  ZZI  30 125
M  ZZM  31 37
M  ZZI  31 125
M  ZZM  32 1
M  ZZI  32 112
M  ZZM  33 1
M  ZZI  33 113
M  ZZM  34 6
M  ZZI  34 60
M  ZZM  35 1
M  ZZI  35 112
M  ZZM  36 22
M  ZZI  36 109
M  ZZM  37 22
M  ZZI  37 109
M  ZZM  38 28
M  ZZI  38 11
M  ZZM  39 5
M  ZZI  39 1
M  ZZM  40 5
M  ZZI  40 1
M  ZZM  41 5
M  ZZI  41 1
M  ZZM  42 5
M  ZZI  42 1
M  ZZM  43 5
M  ZZI  43 1
M  ZZM  44 5
M  ZZI  44 1
M  ZZM  45 5
M  ZZI  45 1
M  ZZM  46 5
M  ZZI  46 1
M  ZZM  47 5
M  ZZI  47 1
M  ZZM  48 5
M  ZZI  48 1
M  ZZM  49 5
M  ZZI  49 1
M  ZZM  50 28
M  ZZI  50 11
M  ZZM  51 5
M  ZZI  51 1
M  ZZM  52 5
M  ZZI  52 1
M  ZZM  53 29
M  ZZI  53 27
M  ZZM  54 5
M  ZZI  54 1
M  ZZM  55 5
M  ZZI  55 1
M  ZZM  56 5
M  ZZI  56 1
M  ZZM  57 5
M  ZZI  57 1
M  ZZM  58 5
M  ZZI  58 1
M  ZZM  59 5
M  ZZI  59 1
M  ZZM  60 5
M  ZZI  60 1
M  ZZM  61 5
M  ZZI  61 1
M  ZZM  62 5
M  ZZI  62 1
M  ZZM  63 5
M  ZZI  63 1
M  ZZM  64 21
M  ZZI  64 20
M  ZZM  65 5
M  ZZI  65 1
M  ZZM  66 5
M  ZZI  66 1
M  ZZM  67 5
M  ZZI  67 1
M  ZZM  68 5
M  ZZI  68 1
M  ZZM  69 5
M  ZZI  69 1
M  ZZM  70 5
M  ZZI  70 1
M  END
> <IX>
1

> <NAME>
VHL_5F1H_1.pdb

> <Score>
-23.203876

> <Natom>
70

> <Nflex>
9

> <Hbond>
-8.683012

> <Hphob>
-6.290641

> <VwInt>
-33.343639

> <Dsolv>
20.666593

> <SolEl>
15.055955

> <Eintl>
9.142729

> <RecConf>
ND

> <projPath>
VHL_maps/

> <NAME_>
VHL_5F1H_1.pdb

$$$$
