VHL_6HAZ_3.pdb
  MOLSOFT 04032206433D

 70 73  0  0  1  0  0  0  0  0999 V2000
   18.7607   -5.4078   -5.9421 F   0  0  0  0  0  0  0  0  0  0  0  0
   17.7142   -5.9801   -5.2246 C   0  0  0  0  0  0  0  0  0  0  0  0
   16.8384   -5.0301   -4.4726 C   0  0  0  0  0  0  0  0  0  0  0  0
   15.7643   -5.3841   -4.0086 O   0  0  0  0  0  0  0  0  0  0  0  0
   17.3290   -3.7443   -4.3752 N   0  0  0  0  0  0  0  0  0  0  0  0
   16.4937   -2.6145   -3.9487 C   0  0  1  0  0  0  0  0  0  0  0  0
   16.6828   -2.1757   -2.4635 C   0  0  0  0  0  0  0  0  0  0  0  0
   16.4466   -3.3681   -1.5223 C   0  0  0  0  0  0  0  0  0  0  0  0
   18.0823   -1.6092   -2.1903 C   0  0  0  0  0  0  0  0  0  0  0  0
   15.6538   -1.0959   -2.0942 C   0  0  0  0  0  0  0  0  0  0  0  0
   16.7975   -1.5128   -4.9855 C   0  0  0  0  0  0  0  0  0  0  0  0
   17.9533   -1.2046   -5.2530 O   0  0  0  0  0  0  0  0  0  0  0  0
   15.7081   -0.9371   -5.6399 N   0  0  0  0  0  0  0  0  0  0  0  0
   15.8916   -0.0898   -6.8122 C   0  0  2  0  0  0  0  0  0  0  0  0
   16.2182    1.3565   -6.4221 C   0  0  0  0  0  0  0  0  0  0  0  0
   15.4085    2.0996   -5.8839 O   0  0  0  0  0  0  0  0  0  0  0  0
   17.5229    1.7196   -6.6976 N   0  0  0  0  0  0  0  0  0  0  0  0
   18.0603    3.0227   -6.3464 C   0  0  0  0  0  0  0  0  0  0  0  0
   19.3801    3.3384   -7.0135 C   0  0  0  0  0  0  0  0  0  0  0  0
   20.3835    2.3910   -7.1592 C   0  0  0  0  0  0  0  0  0  0  0  0
   20.1727    1.1119   -6.6970 O   0  0  0  0  0  0  0  0  0  0  0  0
   21.5974    2.6733   -7.7526 C   0  0  0  0  0  0  0  0  0  0  0  0
   21.8772    3.9502   -8.2222 C   0  0  0  0  0  0  0  0  0  0  0  0
   23.1610    4.2421   -8.8628 C   0  0  0  0  0  0  0  0  0  0  0  0
   23.4796    5.0068   -9.9816 C   0  0  0  0  0  0  0  0  0  0  0  0
   22.5531    5.7607  -10.8595 C   0  0  0  0  0  0  0  0  0  0  0  0
   24.8211    5.0391  -10.3090 N   0  0  0  0  0  0  0  0  0  0  0  0
   25.5072    4.3107   -9.4594 C   0  0  0  0  0  0  0  0  0  0  0  0
   24.6115    3.5658   -8.2167 S   0  0  0  0  0  0  0  0  0  0  0  0
   20.8863    4.9187   -8.0663 C   0  0  0  0  0  0  0  0  0  0  0  0
   19.6649    4.6213   -7.4736 C   0  0  0  0  0  0  0  0  0  0  0  0
   14.5607   -0.1945   -7.5402 C   0  0  0  0  0  0  0  0  0  0  0  0
   13.5368   -0.4149   -6.4374 C   0  0  1  0  0  0  0  0  0  0  0  0
   12.4075   -1.1544   -6.9042 O   0  0  0  0  0  0  0  0  0  0  0  0
   14.3032   -1.2327   -5.4147 C   0  0  0  0  0  0  0  0  0  0  0  0
   18.0104   -7.3479   -4.6759 C   0  0  0  0  0  0  0  0  0  0  0  0
   17.1265   -7.2145   -5.8706 C   0  0  0  0  0  0  0  0  0  0  0  0
   18.2577   -3.5570   -4.7465 H   0  0  0  0  0  0  0  0  0  0  0  0
   15.4599   -2.9468   -4.0635 H   0  0  0  0  0  0  0  0  0  0  0  0
   16.5034   -3.0674   -0.4711 H   0  0  0  0  0  0  0  0  0  0  0  0
   17.1913   -4.1533   -1.6666 H   0  0  0  0  0  0  0  0  0  0  0  0
   15.4583   -3.8135   -1.6780 H   0  0  0  0  0  0  0  0  0  0  0  0
   18.2259   -1.3915   -1.1273 H   0  0  0  0  0  0  0  0  0  0  0  0
   18.2621   -0.6753   -2.7308 H   0  0  0  0  0  0  0  0  0  0  0  0
   18.8573   -2.3174   -2.4797 H   0  0  0  0  0  0  0  0  0  0  0  0
   15.7673   -0.2050   -2.7206 H   0  0  0  0  0  0  0  0  0  0  0  0
   15.7703   -0.7715   -1.0549 H   0  0  0  0  0  0  0  0  0  0  0  0
   14.6261   -1.4487   -2.2242 H   0  0  0  0  0  0  0  0  0  0  0  0
   16.6990   -0.4906   -7.4365 H   0  0  0  0  0  0  0  0  0  0  0  0
   18.1798    1.0056   -7.0071 H   0  0  0  0  0  0  0  0  0  0  0  0
   17.3080    3.7743   -6.6102 H   0  0  0  0  0  0  0  0  0  0  0  0
   18.1837    3.0490   -5.2584 H   0  0  0  0  0  0  0  0  0  0  0  0
   20.4993    0.5086   -7.3889 H   0  0  0  0  0  0  0  0  0  0  0  0
   22.3236    1.8749   -7.8468 H   0  0  0  0  0  0  0  0  0  0  0  0
   23.0259    5.9921  -11.8184 H   0  0  0  0  0  0  0  0  0  0  0  0
   22.2637    6.7068  -10.3939 H   0  0  0  0  0  0  0  0  0  0  0  0
   21.6484    5.1866  -11.0743 H   0  0  0  0  0  0  0  0  0  0  0  0
   26.5786    4.1891   -9.5330 H   0  0  0  0  0  0  0  0  0  0  0  0
   21.0590    5.9371   -8.3988 H   0  0  0  0  0  0  0  0  0  0  0  0
   18.9265    5.4115   -7.3722 H   0  0  0  0  0  0  0  0  0  0  0  0
   14.3230    0.6767   -8.1599 H   0  0  0  0  0  0  0  0  0  0  0  0
   14.5859   -1.0688   -8.1978 H   0  0  0  0  0  0  0  0  0  0  0  0
   13.1927    0.5324   -6.0081 H   0  0  0  0  0  0  0  0  0  0  0  0
   11.9598   -0.6302   -7.5933 H   0  0  0  0  0  0  0  0  0  0  0  0
   14.1297   -2.3053   -5.5428 H   0  0  0  0  0  0  0  0  0  0  0  0
   14.0183   -0.9660   -4.3944 H   0  0  0  0  0  0  0  0  0  0  0  0
   18.9995   -7.7504   -4.8465 H   0  0  0  0  0  0  0  0  0  0  0  0
   17.5482   -7.6444   -3.7449 H   0  0  0  0  0  0  0  0  0  0  0  0
   16.0754   -7.4257   -5.7409 H   0  0  0  0  0  0  0  0  0  0  0  0
   17.5330   -7.5561   -6.8111 H   0  0  0  0  0  0  0  0  0  0  0  0
  2  1  1  0  0  0  0
  2 36  1  0  0  0  0
  2  3  1  0  0  0  0
  2 37  1  0  0  0  0
  3  4  2  0  0  0  0
  3  5  1  0  0  0  0
  5 38  1  0  0  0  0
  6  5  1  0  0  0  0
  6 39  1  0  0  0  0
  6  7  1  0  0  0  0
  6 11  1  0  0  0  0
  7  8  1  0  0  0  0
  7  9  1  0  0  0  0
  7 10  1  0  0  0  0
  8 40  1  0  0  0  0
  8 41  1  0  0  0  0
  8 42  1  0  0  0  0
  9 43  1  0  0  0  0
  9 44  1  0  0  0  0
  9 45  1  0  0  0  0
 10 46  1  0  0  0  0
 10 47  1  0  0  0  0
 10 48  1  0  0  0  0
 11 12  2  0  0  0  0
 11 13  1  0  0  0  0
 13 35  1  0  0  0  0
 14 13  1  0  0  0  0
 14 32  1  0  0  0  0
 14 49  1  0  0  0  0
 14 15  1  0  0  0  0
 15 16  2  0  0  0  0
 15 17  1  0  0  0  0
 17 50  1  0  0  0  0
 17 18  1  0  0  0  0
 18 51  1  0  0  0  0
 18 52  1  0  0  0  0
 18 19  1  0  0  0  0
 19 20  2  0  0  0  0
 19 31  1  0  0  0  0
 20 21  1  0  0  0  0
 20 22  1  0  0  0  0
 21 53  1  0  0  0  0
 22 54  1  0  0  0  0
 22 23  2  0  0  0  0
 23 30  1  0  0  0  0
 23 24  1  0  0  0  0
 24 25  2  0  0  0  0
 24 29  1  0  0  0  0
 25 26  1  0  0  0  0
 25 27  1  0  0  0  0
 26 55  1  0  0  0  0
 26 56  1  0  0  0  0
 26 57  1  0  0  0  0
 27 28  2  0  0  0  0
 28 58  1  0  0  0  0
 28 29  1  0  0  0  0
 30 59  1  0  0  0  0
 30 31  2  0  0  0  0
 31 60  1  0  0  0  0
 33 32  1  0  0  0  0
 32 61  1  0  0  0  0
 32 62  1  0  0  0  0
 33 35  1  0  0  0  0
 33 63  1  0  0  0  0
 33 34  1  0  0  0  0
 34 64  1  0  0  0  0
 35 65  1  0  0  0  0
 35 66  1  0  0  0  0
 36 67  1  0  0  0  0
 36 68  1  0  0  0  0
 36 37  1  0  0  0  0
 37 69  1  0  0  0  0
 37 70  1  0  0  0  0
M  ZZC   1 f1
M  ZZC   2 c1
M  ZZC   3 c2
M  ZZC   4 o1
M  ZZC   5 n1
M  ZZC   6 c3
M  ZZC   7 c4
M  ZZC   8 c5
M  ZZC   9 c6
M  ZZC  10 c7
M  ZZC  11 c8
M  ZZC  12 o2
M  ZZC  13 n2
M  ZZC  14 c9
M  ZZC  15 c10
M  ZZC  16 o3
M  ZZC  17 n3
M  ZZC  18 c11
M  ZZC  19 c12
M  ZZC  20 c13
M  ZZC  21 o4
M  ZZC  22 c14
M  ZZC  23 c15
M  ZZC  24 c16
M  ZZC  25 c17
M  ZZC  26 c18
M  ZZC  27 n4
M  ZZC  28 c19
M  ZZC  29 s1
M  ZZC  30 c20
M  ZZC  31 c21
M  ZZC  32 c22
M  ZZC  33 c23
M  ZZC  34 o5
M  ZZC  35 c24
M  ZZC  36 c25
M  ZZC  37 c26
M  ZZC  38 h11
M  ZZC  39 h31
M  ZZC  40 h51
M  ZZC  41 h52
M  ZZC  42 h53
M  ZZC  43 h61
M  ZZC  44 h62
M  ZZC  45 h63
M  ZZC  46 h71
M  ZZC  47 h72
M  ZZC  48 h73
M  ZZC  49 h91
M  ZZC  50 h01
M  ZZC  51 h111
M  ZZC  52 h112
M  ZZC  53 h41
M  ZZC  54 h141
M  ZZC  55 h181
M  ZZC  56 h182
M  ZZC  57 h183
M  ZZC  58 h191
M  ZZC  59 h201
M  ZZC  60 h211
M  ZZC  61 h221
M  ZZC  62 h222
M  ZZC  63 h231
M  ZZC  64 h02
M  ZZC  65 h241
M  ZZC  66 h242
M  ZZC  67 h251
M  ZZC  68 h252
M  ZZC  69 h261
M  ZZC  70 h262
M  ZZM   1 11
M  ZZI   1 90
M  ZZM   2 22
M  ZZI   2 109
M  ZZM   3 3
M  ZZI   3 121
M  ZZM   4 7
M  ZZI   4 81
M  ZZM   5 10
M  ZZI   5 211
M  ZZM   6 1
M  ZZI   6 113
M  ZZM   7 1
M  ZZI   7 110
M  ZZM   8 1
M  ZZI   8 111
M  ZZM   9 1
M  ZZI   9 111
M  ZZM  10 1
M  ZZI  10 111
M  ZZM  11 3
M  ZZI  11 121
M  ZZM  12 7
M  ZZI  12 81
M  ZZM  13 10
M  ZZI  13 192
M  ZZM  14 1
M  ZZI  14 113
M  ZZM  15 3
M  ZZI  15 121
M  ZZM  16 7
M  ZZI  16 81
M  ZZM  17 10
M  ZZI  17 211
M  ZZM  18 1
M  ZZI  18 112
M  ZZM  19 37
M  ZZI  19 124
M  ZZM  20 37
M  ZZI  20 124
M  ZZM  21 6
M  ZZI  21 62
M  ZZM  22 37
M  ZZI  22 125
M  ZZM  23 37
M  ZZI  23 124
M  ZZM  24 63
M  ZZI  24 104
M  ZZM  25 64
M  ZZI  25 105
M  ZZM  26 1
M  ZZI  26 111
M  ZZM  27 66
M  ZZI  27 222
M  ZZM  28 63
M  ZZI  28 104
M  ZZM  29 44
M  ZZI  29 248
M  ZZM  30 37
M  ZZI  30 125
M  ZZM  31 37
M  ZZI  31 125
M  ZZM  32 1
M  ZZI  32 112
M  ZZM  33 1
M  ZZI  33 113
M  ZZM  34 6
M  ZZI  34 60
M  ZZM  35 1
M  ZZI  35 112
M  ZZM  36 22
M  ZZI  36 109
M  ZZM  37 22
M  ZZI  37 109
M  ZZM  38 28
M  ZZI  38 11
M  ZZM  39 5
M  ZZI  39 1
M  ZZM  40 5
M  ZZI  40 1
M  ZZM  41 5
M  ZZI  41 1
M  ZZM  42 5
M  ZZI  42 1
M  ZZM  43 5
M  ZZI  43 1
M  ZZM  44 5
M  ZZI  44 1
M  ZZM  45 5
M  ZZI  45 1
M  ZZM  46 5
M  ZZI  46 1
M  ZZM  47 5
M  ZZI  47 1
M  ZZM  48 5
M  ZZI  48 1
M  ZZM  49 5
M  ZZI  49 1
M  ZZM  50 28
M  ZZI  50 11
M  ZZM  51 5
M  ZZI  51 1
M  ZZM  52 5
M  ZZI  52 1
M  ZZM  53 29
M  ZZI  53 27
M  ZZM  54 5
M  ZZI  54 1
M  ZZM  55 5
M  ZZI  55 1
M  ZZM  56 5
M  ZZI  56 1
M  ZZM  57 5
M  ZZI  57 1
M  ZZM  58 5
M  ZZI  58 1
M  ZZM  59 5
M  ZZI  59 1
M  ZZM  60 5
M  ZZI  60 1
M  ZZM  61 5
M  ZZI  61 1
M  ZZM  62 5
M  ZZI  62 1
M  ZZM  63 5
M  ZZI  63 1
M  ZZM  64 21
M  ZZI  64 20
M  ZZM  65 5
M  ZZI  65 1
M  ZZM  66 5
M  ZZI  66 1
M  ZZM  67 5
M  ZZI  67 1
M  ZZM  68 5
M  ZZI  68 1
M  ZZM  69 5
M  ZZI  69 1
M  ZZM  70 5
M  ZZI  70 1
M  END
> <IX>
1

> <NAME>
VHL_6HAZ_3.pdb

> <Score>
-20.77393

> <Natom>
70

> <Nflex>
9

> <Hbond>
-7.553144

> <Hphob>
-6.254826

> <VwInt>
-32.255566

> <Dsolv>
19.815028

> <SolEl>
13.948985

> <Eintl>
8.857039

> <RecConf>
ND

> <projPath>
VHL_maps/

> <NAME_>
VHL_6HAZ_3.pdb

$$$$
