VHL_4QNQ_17.pdb
  MOLSOFT 04032206403D

 68 70  0  0  1  0  0  0  0  0999 V2000
   17.2357   -6.1554   -4.4517 C   0  0  0  0  0  0  0  0  0  0  0  0
   16.4296   -5.0082   -3.9019 C   0  0  0  0  0  0  0  0  0  0  0  0
   15.2940   -5.1575   -3.4780 O   0  0  0  0  0  0  0  0  0  0  0  0
   17.0917   -3.7985   -3.9220 N   0  0  0  0  0  0  0  0  0  0  0  0
   16.3981   -2.5404   -3.6332 C   0  0  1  0  0  0  0  0  0  0  0  0
   16.6945   -1.9536   -2.2205 C   0  0  0  0  0  0  0  0  0  0  0  0
   15.7522   -0.7716   -1.9444 C   0  0  0  0  0  0  0  0  0  0  0  0
   18.1398   -1.4577   -2.0735 C   0  0  0  0  0  0  0  0  0  0  0  0
   16.4372   -3.0188   -1.1407 C   0  0  0  0  0  0  0  0  0  0  0  0
   16.7627   -1.6050   -4.8046 C   0  0  0  0  0  0  0  0  0  0  0  0
   17.9329   -1.3851   -5.0950 O   0  0  0  0  0  0  0  0  0  0  0  0
   15.7050   -1.0656   -5.5364 N   0  0  0  0  0  0  0  0  0  0  0  0
   15.9338   -0.2876   -6.7476 C   0  0  2  0  0  0  0  0  0  0  0  0
   16.2864    1.1562   -6.3736 C   0  0  0  0  0  0  0  0  0  0  0  0
   15.4809    1.9176   -5.8548 O   0  0  0  0  0  0  0  0  0  0  0  0
   17.6128    1.4826   -6.5980 N   0  0  0  0  0  0  0  0  0  0  0  0
   18.1913    2.7294   -6.1116 C   0  0  1  0  0  0  0  0  0  0  0  0
   18.5514    2.6022   -4.6304 C   0  0  0  0  0  0  0  0  0  0  0  0
   19.4004    3.1764   -6.9117 C   0  0  0  0  0  0  0  0  0  0  0  0
   19.5024    4.4908   -7.3564 C   0  0  0  0  0  0  0  0  0  0  0  0
   20.6103    4.9288   -8.0646 C   0  0  0  0  0  0  0  0  0  0  0  0
   21.6704    4.0718   -8.3571 C   0  0  0  0  0  0  0  0  0  0  0  0
   22.8049    4.4965   -9.1853 C   0  0  0  0  0  0  0  0  0  0  0  0
   24.1569    4.1543   -9.1665 C   0  0  0  0  0  0  0  0  0  0  0  0
   24.8660    3.2675   -8.2168 C   0  0  0  0  0  0  0  0  0  0  0  0
   24.9230    4.7176  -10.1662 N   0  0  0  0  0  0  0  0  0  0  0  0
   24.1733    5.4789  -10.9286 C   0  0  0  0  0  0  0  0  0  0  0  0
   22.5286    5.5846  -10.4971 S   0  0  0  0  0  0  0  0  0  0  0  0
   21.5784    2.7688   -7.8792 C   0  0  0  0  0  0  0  0  0  0  0  0
   20.4660    2.3269   -7.1870 C   0  0  0  0  0  0  0  0  0  0  0  0
   14.6121   -0.3834   -7.4923 C   0  0  0  0  0  0  0  0  0  0  0  0
   13.5624   -0.5249   -6.3996 C   0  0  1  0  0  0  0  0  0  0  0  0
   12.4323   -1.2687   -6.8563 O   0  0  0  0  0  0  0  0  0  0  0  0
   14.2882   -1.2970   -5.3121 C   0  0  0  0  0  0  0  0  0  0  0  0
   18.0956   -5.8050   -5.0307 H   0  0  0  0  0  0  0  0  0  0  0  0
   16.6003   -6.7465   -5.1181 H   0  0  0  0  0  0  0  0  0  0  0  0
   17.5856   -6.7868   -3.6321 H   0  0  0  0  0  0  0  0  0  0  0  0
   18.0548   -3.7637   -4.2440 H   0  0  0  0  0  0  0  0  0  0  0  0
   15.3311   -2.7686   -3.6716 H   0  0  0  0  0  0  0  0  0  0  0  0
   15.8919    0.0376   -2.6681 H   0  0  0  0  0  0  0  0  0  0  0  0
   15.9241   -0.3468   -0.9500 H   0  0  0  0  0  0  0  0  0  0  0  0
   14.7018   -1.0785   -1.9868 H   0  0  0  0  0  0  0  0  0  0  0  0
   18.3512   -1.1553   -1.0479 H   0  0  0  0  0  0  0  0  0  0  0  0
   18.3326   -0.5900   -2.7123 H   0  0  0  0  0  0  0  0  0  0  0  0
   18.8690   -2.2231   -2.3547 H   0  0  0  0  0  0  0  0  0  0  0  0
   16.5581   -2.6067   -0.1333 H   0  0  0  0  0  0  0  0  0  0  0  0
   17.1346   -3.8579   -1.2312 H   0  0  0  0  0  0  0  0  0  0  0  0
   15.4285   -3.4368   -1.2111 H   0  0  0  0  0  0  0  0  0  0  0  0
   16.7475   -0.7301   -7.3339 H   0  0  0  0  0  0  0  0  0  0  0  0
   18.2223    0.7879   -7.0191 H   0  0  0  0  0  0  0  0  0  0  0  0
   17.4107    3.4931   -6.2036 H   0  0  0  0  0  0  0  0  0  0  0  0
   18.9757    3.5341   -4.2444 H   0  0  0  0  0  0  0  0  0  0  0  0
   19.2836    1.8056   -4.4647 H   0  0  0  0  0  0  0  0  0  0  0  0
   17.6717    2.3761   -4.0192 H   0  0  0  0  0  0  0  0  0  0  0  0
   18.7029    5.1980   -7.1551 H   0  0  0  0  0  0  0  0  0  0  0  0
   20.6267    5.9640   -8.3914 H   0  0  0  0  0  0  0  0  0  0  0  0
   25.9371    3.4900   -8.1987 H   0  0  0  0  0  0  0  0  0  0  0  0
   24.7517    2.2223   -8.5161 H   0  0  0  0  0  0  0  0  0  0  0  0
   24.4905    3.3927   -7.1977 H   0  0  0  0  0  0  0  0  0  0  0  0
   24.5702    6.0135  -11.7797 H   0  0  0  0  0  0  0  0  0  0  0  0
   22.3612    2.0496   -8.0862 H   0  0  0  0  0  0  0  0  0  0  0  0
   20.4347    1.2907   -6.8734 H   0  0  0  0  0  0  0  0  0  0  0  0
   14.4143    0.4713   -8.1479 H   0  0  0  0  0  0  0  0  0  0  0  0
   14.6177   -1.2826   -8.1170 H   0  0  0  0  0  0  0  0  0  0  0  0
   13.2248    0.4500   -6.0311 H   0  0  0  0  0  0  0  0  0  0  0  0
   11.9782   -0.7447   -7.5415 H   0  0  0  0  0  0  0  0  0  0  0  0
   14.0819   -2.3708   -5.3668 H   0  0  0  0  0  0  0  0  0  0  0  0
   14.0032   -0.9488   -4.3152 H   0  0  0  0  0  0  0  0  0  0  0  0
  1 35  1  0  0  0  0
  1 36  1  0  0  0  0
  1 37  1  0  0  0  0
  1  2  1  0  0  0  0
  2  3  2  0  0  0  0
  2  4  1  0  0  0  0
  4 38  1  0  0  0  0
  5  4  1  0  0  0  0
  5 39  1  0  0  0  0
  5  6  1  0  0  0  0
  5 10  1  0  0  0  0
  6  7  1  0  0  0  0
  6  8  1  0  0  0  0
  6  9  1  0  0  0  0
  7 40  1  0  0  0  0
  7 41  1  0  0  0  0
  7 42  1  0  0  0  0
  8 43  1  0  0  0  0
  8 44  1  0  0  0  0
  8 45  1  0  0  0  0
  9 46  1  0  0  0  0
  9 47  1  0  0  0  0
  9 48  1  0  0  0  0
 10 11  2  0  0  0  0
 10 12  1  0  0  0  0
 12 34  1  0  0  0  0
 13 12  1  0  0  0  0
 13 31  1  0  0  0  0
 13 49  1  0  0  0  0
 13 14  1  0  0  0  0
 14 15  2  0  0  0  0
 14 16  1  0  0  0  0
 16 50  1  0  0  0  0
 17 16  1  0  0  0  0
 17 51  1  0  0  0  0
 17 18  1  0  0  0  0
 17 19  1  0  0  0  0
 18 52  1  0  0  0  0
 18 53  1  0  0  0  0
 18 54  1  0  0  0  0
 19 20  1  0  0  0  0
 19 30  2  0  0  0  0
 20 55  1  0  0  0  0
 20 21  2  0  0  0  0
 21 56  1  0  0  0  0
 21 22  1  0  0  0  0
 22 29  2  0  0  0  0
 22 23  1  0  0  0  0
 23 24  2  0  0  0  0
 23 28  1  0  0  0  0
 24 25  1  0  0  0  0
 24 26  1  0  0  0  0
 25 57  1  0  0  0  0
 25 58  1  0  0  0  0
 25 59  1  0  0  0  0
 26 27  2  0  0  0  0
 27 60  1  0  0  0  0
 27 28  1  0  0  0  0
 29 61  1  0  0  0  0
 29 30  1  0  0  0  0
 30 62  1  0  0  0  0
 32 31  1  0  0  0  0
 31 63  1  0  0  0  0
 31 64  1  0  0  0  0
 32 34  1  0  0  0  0
 32 65  1  0  0  0  0
 32 33  1  0  0  0  0
 33 66  1  0  0  0  0
 34 67  1  0  0  0  0
 34 68  1  0  0  0  0
M  ZZC   1 c1
M  ZZC   2 c2
M  ZZC   3 o1
M  ZZC   4 n1
M  ZZC   5 c3
M  ZZC   6 c4
M  ZZC   7 c5
M  ZZC   8 c6
M  ZZC   9 c7
M  ZZC  10 c8
M  ZZC  11 o2
M  ZZC  12 n2
M  ZZC  13 c9
M  ZZC  14 c10
M  ZZC  15 o3
M  ZZC  16 n3
M  ZZC  17 c11
M  ZZC  18 c12
M  ZZC  19 c13
M  ZZC  20 c14
M  ZZC  21 c15
M  ZZC  22 c16
M  ZZC  23 c17
M  ZZC  24 c18
M  ZZC  25 c19
M  ZZC  26 n4
M  ZZC  27 c20
M  ZZC  28 s1
M  ZZC  29 c21
M  ZZC  30 c22
M  ZZC  31 c23
M  ZZC  32 c24
M  ZZC  33 o4
M  ZZC  34 c25
M  ZZC  35 h11
M  ZZC  36 h12
M  ZZC  37 h13
M  ZZC  38 h01
M  ZZC  39 h31
M  ZZC  40 h51
M  ZZC  41 h52
M  ZZC  42 h53
M  ZZC  43 h61
M  ZZC  44 h62
M  ZZC  45 h63
M  ZZC  46 h71
M  ZZC  47 h72
M  ZZC  48 h73
M  ZZC  49 h91
M  ZZC  50 h02
M  ZZC  51 h111
M  ZZC  52 h121
M  ZZC  53 h122
M  ZZC  54 h123
M  ZZC  55 h141
M  ZZC  56 h151
M  ZZC  57 h191
M  ZZC  58 h192
M  ZZC  59 h193
M  ZZC  60 h201
M  ZZC  61 h211
M  ZZC  62 h221
M  ZZC  63 h231
M  ZZC  64 h232
M  ZZC  65 h241
M  ZZC  66 h41
M  ZZC  67 h251
M  ZZC  68 h252
M  ZZM   1 1
M  ZZI   1 111
M  ZZM   2 3
M  ZZI   2 121
M  ZZM   3 7
M  ZZI   3 81
M  ZZM   4 10
M  ZZI   4 211
M  ZZM   5 1
M  ZZI   5 113
M  ZZM   6 1
M  ZZI   6 110
M  ZZM   7 1
M  ZZI   7 111
M  ZZM   8 1
M  ZZI   8 111
M  ZZM   9 1
M  ZZI   9 111
M  ZZM  10 3
M  ZZI  10 121
M  ZZM  11 7
M  ZZI  11 81
M  ZZM  12 10
M  ZZI  12 192
M  ZZM  13 1
M  ZZI  13 113
M  ZZM  14 3
M  ZZI  14 121
M  ZZM  15 7
M  ZZI  15 81
M  ZZM  16 10
M  ZZI  16 211
M  ZZM  17 1
M  ZZI  17 113
M  ZZM  18 1
M  ZZI  18 111
M  ZZM  19 37
M  ZZI  19 124
M  ZZM  20 37
M  ZZI  20 125
M  ZZM  21 37
M  ZZI  21 125
M  ZZM  22 37
M  ZZI  22 124
M  ZZM  23 63
M  ZZI  23 104
M  ZZM  24 64
M  ZZI  24 105
M  ZZM  25 1
M  ZZI  25 111
M  ZZM  26 66
M  ZZI  26 222
M  ZZM  27 63
M  ZZI  27 104
M  ZZM  28 44
M  ZZI  28 248
M  ZZM  29 37
M  ZZI  29 125
M  ZZM  30 37
M  ZZI  30 125
M  ZZM  31 1
M  ZZI  31 112
M  ZZM  32 1
M  ZZI  32 113
M  ZZM  33 6
M  ZZI  33 60
M  ZZM  34 1
M  ZZI  34 112
M  ZZM  35 5
M  ZZI  35 1
M  ZZM  36 5
M  ZZI  36 1
M  ZZM  37 5
M  ZZI  37 1
M  ZZM  38 28
M  ZZI  38 11
M  ZZM  39 5
M  ZZI  39 1
M  ZZM  40 5
M  ZZI  40 1
M  ZZM  41 5
M  ZZI  41 1
M  ZZM  42 5
M  ZZI  42 1
M  ZZM  43 5
M  ZZI  43 1
M  ZZM  44 5
M  ZZI  44 1
M  ZZM  45 5
M  ZZI  45 1
M  ZZM  46 5
M  ZZI  46 1
M  ZZM  47 5
M  ZZI  47 1
M  ZZM  48 5
M  ZZI  48 1
M  ZZM  49 5
M  ZZI  49 1
M  ZZM  50 28
M  ZZI  50 11
M  ZZM  51 5
M  ZZI  51 1
M  ZZM  52 5
M  ZZI  52 1
M  ZZM  53 5
M  ZZI  53 1
M  ZZM  54 5
M  ZZI  54 1
M  ZZM  55 5
M  ZZI  55 1
M  ZZM  56 5
M  ZZI  56 1
M  ZZM  57 5
M  ZZI  57 1
M  ZZM  58 5
M  ZZI  58 1
M  ZZM  59 5
M  ZZI  59 1
M  ZZM  60 5
M  ZZI  60 1
M  ZZM  61 5
M  ZZI  61 1
M  ZZM  62 5
M  ZZI  62 1
M  ZZM  63 5
M  ZZI  63 1
M  ZZM  64 5
M  ZZI  64 1
M  ZZM  65 5
M  ZZI  65 1
M  ZZM  66 21
M  ZZI  66 20
M  ZZM  67 5
M  ZZI  67 1
M  ZZM  68 5
M  ZZI  68 1
M  END
> <IX>
1

> <NAME>
VHL_4QNQ_17.pdb

> <Score>
-14.154044

> <Natom>
68

> <Nflex>
8

> <Hbond>
-5.068085

> <Hphob>
-6.205913

> <VwInt>
-30.145177

> <Dsolv>
17.752772

> <SolEl>
18.091975

> <Eintl>
4.860112

> <RecConf>
ND

> <projPath>
VHL_maps/

> <NAME_>
VHL_4QNQ_17.pdb

$$$$
