VHL_5L2I_8.pdb
  MOLSOFT 04032206403D

 68 70  0  0  1  0  0  0  0  0999 V2000
   15.3333   -5.1663   -3.4303 O   0  0  0  0  0  0  0  0  0  0  0  0
   16.4495   -4.9897   -3.8937 C   0  0  0  0  0  0  0  0  0  0  0  0
   17.0639   -3.7571   -3.9790 N   0  0  0  0  0  0  0  0  0  0  0  0
   16.3502   -2.5139   -3.6717 C   0  0  1  0  0  0  0  0  0  0  0  0
   16.6704   -1.9271   -2.2635 C   0  0  0  0  0  0  0  0  0  0  0  0
   16.4170   -2.9869   -1.1771 C   0  0  0  0  0  0  0  0  0  0  0  0
   15.7421   -0.7365   -1.9766 C   0  0  0  0  0  0  0  0  0  0  0  0
   18.1223   -1.4452   -2.1350 C   0  0  0  0  0  0  0  0  0  0  0  0
   16.6714   -1.5652   -4.8458 C   0  0  0  0  0  0  0  0  0  0  0  0
   17.8306   -1.3259   -5.1647 O   0  0  0  0  0  0  0  0  0  0  0  0
   15.5861   -1.0384   -5.5490 N   0  0  0  0  0  0  0  0  0  0  0  0
   15.7700   -0.2775   -6.7789 C   0  0  2  0  0  0  0  0  0  0  0  0
   16.1091    1.1827   -6.4657 C   0  0  0  0  0  0  0  0  0  0  0  0
   15.2959    1.9661   -5.9939 O   0  0  0  0  0  0  0  0  0  0  0  0
   17.4362    1.4957   -6.6928 N   0  0  0  0  0  0  0  0  0  0  0  0
   18.0208    2.7679   -6.2812 C   0  0  1  0  0  0  0  0  0  0  0  0
   18.1615    2.8189   -4.7569 C   0  0  0  0  0  0  0  0  0  0  0  0
   19.3767    3.0395   -6.9079 C   0  0  0  0  0  0  0  0  0  0  0  0
   20.3086    2.0266   -7.1024 C   0  0  0  0  0  0  0  0  0  0  0  0
   21.5818    2.3033   -7.5521 C   0  0  0  0  0  0  0  0  0  0  0  0
   21.9775    3.5988   -7.8370 C   0  0  0  0  0  0  0  0  0  0  0  0
   23.3463    3.8562   -8.2533 C   0  0  0  0  0  0  0  0  0  0  0  0
   24.4568    4.2245   -7.5072 C   0  0  0  0  0  0  0  0  0  0  0  0
   24.4967    4.5031   -6.0537 C   0  0  0  0  0  0  0  0  0  0  0  0
   25.6361    4.3105   -8.2196 N   0  0  0  0  0  0  0  0  0  0  0  0
   25.4101    4.0298   -9.4833 C   0  0  0  0  0  0  0  0  0  0  0  0
   23.7974    3.6571   -9.8981 S   0  0  0  0  0  0  0  0  0  0  0  0
   21.0497    4.6198   -7.6784 C   0  0  0  0  0  0  0  0  0  0  0  0
   19.7688    4.3416   -7.2203 C   0  0  0  0  0  0  0  0  0  0  0  0
   14.4334   -0.4048   -7.4865 C   0  0  0  0  0  0  0  0  0  0  0  0
   13.4146   -0.5385   -6.3658 C   0  0  1  0  0  0  0  0  0  0  0  0
   12.2818   -1.2971   -6.7897 O   0  0  0  0  0  0  0  0  0  0  0  0
   14.1783   -1.2904   -5.2892 C   0  0  0  0  0  0  0  0  0  0  0  0
   17.2731   -6.1245   -4.4449 C   0  0  0  0  0  0  0  0  0  0  0  0
   18.0156   -3.6989   -4.3302 H   0  0  0  0  0  0  0  0  0  0  0  0
   15.2874   -2.7640   -3.6870 H   0  0  0  0  0  0  0  0  0  0  0  0
   15.3961   -3.3798   -1.2297 H   0  0  0  0  0  0  0  0  0  0  0  0
   16.5505   -2.5713   -0.1731 H   0  0  0  0  0  0  0  0  0  0  0  0
   17.1058   -3.8327   -1.2626 H   0  0  0  0  0  0  0  0  0  0  0  0
   14.6866   -1.0242   -2.0133 H   0  0  0  0  0  0  0  0  0  0  0  0
   15.8819    0.0649   -2.7094 H   0  0  0  0  0  0  0  0  0  0  0  0
   15.9366   -0.3061   -0.9887 H   0  0  0  0  0  0  0  0  0  0  0  0
   18.3316   -0.5853   -2.7779 H   0  0  0  0  0  0  0  0  0  0  0  0
   18.8254   -2.2375   -2.3936 H   0  0  0  0  0  0  0  0  0  0  0  0
   18.3508   -1.1340   -1.1108 H   0  0  0  0  0  0  0  0  0  0  0  0
   16.5704   -0.7234   -7.3810 H   0  0  0  0  0  0  0  0  0  0  0  0
   18.0341    0.7771   -7.0891 H   0  0  0  0  0  0  0  0  0  0  0  0
   17.3188    3.5487   -6.5967 H   0  0  0  0  0  0  0  0  0  0  0  0
   18.5836    3.7709   -4.4222 H   0  0  0  0  0  0  0  0  0  0  0  0
   18.8144    2.0212   -4.3886 H   0  0  0  0  0  0  0  0  0  0  0  0
   17.1912    2.7061   -4.2609 H   0  0  0  0  0  0  0  0  0  0  0  0
   20.0625    0.9955   -6.8821 H   0  0  0  0  0  0  0  0  0  0  0  0
   22.2763    1.4819   -7.6722 H   0  0  0  0  0  0  0  0  0  0  0  0
   23.9228    5.4035   -5.8170 H   0  0  0  0  0  0  0  0  0  0  0  0
   25.5239    4.6566   -5.7100 H   0  0  0  0  0  0  0  0  0  0  0  0
   24.0788    3.6693   -5.4843 H   0  0  0  0  0  0  0  0  0  0  0  0
   26.1947    4.0344  -10.2264 H   0  0  0  0  0  0  0  0  0  0  0  0
   21.3251    5.6477   -7.8953 H   0  0  0  0  0  0  0  0  0  0  0  0
   19.0754    5.1658   -7.0807 H   0  0  0  0  0  0  0  0  0  0  0  0
   14.2070    0.4331   -8.1544 H   0  0  0  0  0  0  0  0  0  0  0  0
   14.4402   -1.3180   -8.0891 H   0  0  0  0  0  0  0  0  0  0  0  0
   13.0775    0.4382   -6.0017 H   0  0  0  0  0  0  0  0  0  0  0  0
   11.8110   -0.7866   -7.4742 H   0  0  0  0  0  0  0  0  0  0  0  0
   13.9873   -2.3676   -5.3324 H   0  0  0  0  0  0  0  0  0  0  0  0
   13.9124   -0.9400   -4.2879 H   0  0  0  0  0  0  0  0  0  0  0  0
   16.6998   -6.6351   -5.2247 H   0  0  0  0  0  0  0  0  0  0  0  0
   17.5005   -6.8311   -3.6433 H   0  0  0  0  0  0  0  0  0  0  0  0
   18.2107   -5.7707   -4.8839 H   0  0  0  0  0  0  0  0  0  0  0  0
  1  2  2  0  0  0  0
  2  3  1  0  0  0  0
  2 34  1  0  0  0  0
  4  3  1  0  0  0  0
  3 35  1  0  0  0  0
  4  5  1  0  0  0  0
  4 36  1  0  0  0  0
  4  9  1  0  0  0  0
  5  6  1  0  0  0  0
  5  7  1  0  0  0  0
  5  8  1  0  0  0  0
  6 37  1  0  0  0  0
  6 38  1  0  0  0  0
  6 39  1  0  0  0  0
  7 40  1  0  0  0  0
  7 41  1  0  0  0  0
  7 42  1  0  0  0  0
  8 43  1  0  0  0  0
  8 44  1  0  0  0  0
  8 45  1  0  0  0  0
  9 10  2  0  0  0  0
  9 11  1  0  0  0  0
 11 33  1  0  0  0  0
 12 11  1  0  0  0  0
 12 30  1  0  0  0  0
 12 46  1  0  0  0  0
 12 13  1  0  0  0  0
 13 14  2  0  0  0  0
 13 15  1  0  0  0  0
 15 47  1  0  0  0  0
 16 15  1  0  0  0  0
 16 48  1  0  0  0  0
 16 17  1  0  0  0  0
 16 18  1  0  0  0  0
 17 49  1  0  0  0  0
 17 50  1  0  0  0  0
 17 51  1  0  0  0  0
 18 19  1  0  0  0  0
 18 29  2  0  0  0  0
 19 52  1  0  0  0  0
 19 20  2  0  0  0  0
 20 53  1  0  0  0  0
 20 21  1  0  0  0  0
 21 28  2  0  0  0  0
 21 22  1  0  0  0  0
 22 23  2  0  0  0  0
 22 27  1  0  0  0  0
 23 24  1  0  0  0  0
 23 25  1  0  0  0  0
 24 54  1  0  0  0  0
 24 55  1  0  0  0  0
 24 56  1  0  0  0  0
 25 26  2  0  0  0  0
 26 57  1  0  0  0  0
 26 27  1  0  0  0  0
 28 58  1  0  0  0  0
 28 29  1  0  0  0  0
 29 59  1  0  0  0  0
 31 30  1  0  0  0  0
 30 60  1  0  0  0  0
 30 61  1  0  0  0  0
 31 33  1  0  0  0  0
 31 62  1  0  0  0  0
 31 32  1  0  0  0  0
 32 63  1  0  0  0  0
 33 64  1  0  0  0  0
 33 65  1  0  0  0  0
 34 66  1  0  0  0  0
 34 67  1  0  0  0  0
 34 68  1  0  0  0  0
M  ZZC   1 o1
M  ZZC   2 c1
M  ZZC   3 n1
M  ZZC   4 c2
M  ZZC   5 c3
M  ZZC   6 c4
M  ZZC   7 c5
M  ZZC   8 c6
M  ZZC   9 c7
M  ZZC  10 o2
M  ZZC  11 n2
M  ZZC  12 c8
M  ZZC  13 c9
M  ZZC  14 o3
M  ZZC  15 n3
M  ZZC  16 c10
M  ZZC  17 c11
M  ZZC  18 c12
M  ZZC  19 c13
M  ZZC  20 c14
M  ZZC  21 c15
M  ZZC  22 c16
M  ZZC  23 c17
M  ZZC  24 c18
M  ZZC  25 n4
M  ZZC  26 c19
M  ZZC  27 s1
M  ZZC  28 c20
M  ZZC  29 c21
M  ZZC  30 c22
M  ZZC  31 c23
M  ZZC  32 o4
M  ZZC  33 c24
M  ZZC  34 c25
M  ZZC  35 h11
M  ZZC  36 h21
M  ZZC  37 h41
M  ZZC  38 h42
M  ZZC  39 h43
M  ZZC  40 h51
M  ZZC  41 h52
M  ZZC  42 h53
M  ZZC  43 h61
M  ZZC  44 h62
M  ZZC  45 h63
M  ZZC  46 h81
M  ZZC  47 h31
M  ZZC  48 h101
M  ZZC  49 h111
M  ZZC  50 h112
M  ZZC  51 h113
M  ZZC  52 h131
M  ZZC  53 h141
M  ZZC  54 h181
M  ZZC  55 h182
M  ZZC  56 h183
M  ZZC  57 h191
M  ZZC  58 h201
M  ZZC  59 h211
M  ZZC  60 h221
M  ZZC  61 h222
M  ZZC  62 h231
M  ZZC  63 h01
M  ZZC  64 h241
M  ZZC  65 h242
M  ZZC  66 h251
M  ZZC  67 h252
M  ZZC  68 h253
M  ZZM   1 7
M  ZZI   1 81
M  ZZM   2 3
M  ZZI   2 121
M  ZZM   3 10
M  ZZI   3 211
M  ZZM   4 1
M  ZZI   4 113
M  ZZM   5 1
M  ZZI   5 110
M  ZZM   6 1
M  ZZI   6 111
M  ZZM   7 1
M  ZZI   7 111
M  ZZM   8 1
M  ZZI   8 111
M  ZZM   9 3
M  ZZI   9 121
M  ZZM  10 7
M  ZZI  10 81
M  ZZM  11 10
M  ZZI  11 192
M  ZZM  12 1
M  ZZI  12 113
M  ZZM  13 3
M  ZZI  13 121
M  ZZM  14 7
M  ZZI  14 81
M  ZZM  15 10
M  ZZI  15 211
M  ZZM  16 1
M  ZZI  16 113
M  ZZM  17 1
M  ZZI  17 111
M  ZZM  18 37
M  ZZI  18 124
M  ZZM  19 37
M  ZZI  19 125
M  ZZM  20 37
M  ZZI  20 125
M  ZZM  21 37
M  ZZI  21 124
M  ZZM  22 63
M  ZZI  22 104
M  ZZM  23 64
M  ZZI  23 105
M  ZZM  24 1
M  ZZI  24 111
M  ZZM  25 66
M  ZZI  25 222
M  ZZM  26 63
M  ZZI  26 104
M  ZZM  27 44
M  ZZI  27 248
M  ZZM  28 37
M  ZZI  28 125
M  ZZM  29 37
M  ZZI  29 125
M  ZZM  30 1
M  ZZI  30 112
M  ZZM  31 1
M  ZZI  31 113
M  ZZM  32 6
M  ZZI  32 60
M  ZZM  33 1
M  ZZI  33 112
M  ZZM  34 1
M  ZZI  34 111
M  ZZM  35 28
M  ZZI  35 11
M  ZZM  36 5
M  ZZI  36 1
M  ZZM  37 5
M  ZZI  37 1
M  ZZM  38 5
M  ZZI  38 1
M  ZZM  39 5
M  ZZI  39 1
M  ZZM  40 5
M  ZZI  40 1
M  ZZM  41 5
M  ZZI  41 1
M  ZZM  42 5
M  ZZI  42 1
M  ZZM  43 5
M  ZZI  43 1
M  ZZM  44 5
M  ZZI  44 1
M  ZZM  45 5
M  ZZI  45 1
M  ZZM  46 5
M  ZZI  46 1
M  ZZM  47 28
M  ZZI  47 11
M  ZZM  48 5
M  ZZI  48 1
M  ZZM  49 5
M  ZZI  49 1
M  ZZM  50 5
M  ZZI  50 1
M  ZZM  51 5
M  ZZI  51 1
M  ZZM  52 5
M  ZZI  52 1
M  ZZM  53 5
M  ZZI  53 1
M  ZZM  54 5
M  ZZI  54 1
M  ZZM  55 5
M  ZZI  55 1
M  ZZM  56 5
M  ZZI  56 1
M  ZZM  57 5
M  ZZI  57 1
M  ZZM  58 5
M  ZZI  58 1
M  ZZM  59 5
M  ZZI  59 1
M  ZZM  60 5
M  ZZI  60 1
M  ZZM  61 5
M  ZZI  61 1
M  ZZM  62 5
M  ZZI  62 1
M  ZZM  63 21
M  ZZI  63 20
M  ZZM  64 5
M  ZZI  64 1
M  ZZM  65 5
M  ZZI  65 1
M  ZZM  66 5
M  ZZI  66 1
M  ZZM  67 5
M  ZZI  67 1
M  ZZM  68 5
M  ZZI  68 1
M  END
> <IX>
1

> <NAME>
VHL_5L2I_8.pdb

> <Score>
-17.200585

> <Natom>
68

> <Nflex>
8

> <Hbond>
-6.532457

> <Hphob>
-6.297184

> <VwInt>
-31.918869

> <Dsolv>
18.258059

> <SolEl>
20.682199

> <Eintl>
5.534528

> <RecConf>
ND

> <projPath>
VHL_maps/

> <NAME_>
VHL_5L2I_8.pdb

$$$$
