VHL_5T8E_39.pdb
  MOLSOFT 04032206423D

 65 67  0  0  1  0  0  0  0  0999 V2000
   18.1527   -6.8657   -5.1661 C   0  0  0  0  0  0  0  0  0  0  0  0
   16.9659   -5.9477   -5.0608 C   0  0  0  0  0  0  0  0  0  0  0  0
   15.8803   -6.2765   -5.5080 O   0  0  0  0  0  0  0  0  0  0  0  0
   17.2320   -4.7665   -4.3967 N   0  0  0  0  0  0  0  0  0  0  0  0
   16.2548   -3.6868   -4.1960 C   0  0  1  0  0  0  0  0  0  0  0  0
   15.8894   -3.4824   -2.6941 C   0  0  0  0  0  0  0  0  0  0  0  0
   15.3930   -4.8168   -2.1202 C   0  0  0  0  0  0  0  0  0  0  0  0
   17.0850   -2.9932   -1.8640 C   0  0  0  0  0  0  0  0  0  0  0  0
   14.7519   -2.4664   -2.5119 C   0  0  0  0  0  0  0  0  0  0  0  0
   16.8655   -2.4529   -4.8923 C   0  0  0  0  0  0  0  0  0  0  0  0
   18.0606   -2.2031   -4.8028 O   0  0  0  0  0  0  0  0  0  0  0  0
   16.0117   -1.6195   -5.6160 N   0  0  0  0  0  0  0  0  0  0  0  0
   16.5282   -0.5346   -6.4425 C   0  0  2  0  0  0  0  0  0  0  0  0
   17.0519    0.6447   -5.6280 C   0  0  0  0  0  0  0  0  0  0  0  0
   16.5783    0.9771   -4.5497 O   0  0  0  0  0  0  0  0  0  0  0  0
   18.0536    1.3354   -6.2850 N   0  0  0  0  0  0  0  0  0  0  0  0
   18.6057    2.5746   -5.7832 C   0  0  0  0  0  0  0  0  0  0  0  0
   17.8954    3.7627   -6.3770 C   0  0  0  0  0  0  0  0  0  0  0  0
   16.6324    4.1285   -5.9242 C   0  0  0  0  0  0  0  0  0  0  0  0
   15.9629    5.2045   -6.4762 C   0  0  0  0  0  0  0  0  0  0  0  0
   16.5386    5.9535   -7.4959 C   0  0  0  0  0  0  0  0  0  0  0  0
   15.8321    7.1010   -8.0519 C   0  0  0  0  0  0  0  0  0  0  0  0
   14.5320    7.2261   -8.5270 C   0  0  0  0  0  0  0  0  0  0  0  0
   13.5064    6.1637   -8.6348 C   0  0  0  0  0  0  0  0  0  0  0  0
   14.1813    8.4942   -8.9363 N   0  0  0  0  0  0  0  0  0  0  0  0
   15.2078    9.3039   -8.8076 C   0  0  0  0  0  0  0  0  0  0  0  0
   16.6299    8.6226   -8.1631 S   0  0  0  0  0  0  0  0  0  0  0  0
   17.8013    5.5846   -7.9547 C   0  0  0  0  0  0  0  0  0  0  0  0
   18.4696    4.5028   -7.4050 C   0  0  0  0  0  0  0  0  0  0  0  0
   15.3465   -0.0970   -7.3098 C   0  0  0  0  0  0  0  0  0  0  0  0
   14.1383   -0.5286   -6.4958 C   0  0  1  0  0  0  0  0  0  0  0  0
   12.9807   -0.7419   -7.2992 O   0  0  0  0  0  0  0  0  0  0  0  0
   14.6160   -1.8344   -5.9038 C   0  0  0  0  0  0  0  0  0  0  0  0
   19.0891   -6.3003   -5.1966 H   0  0  0  0  0  0  0  0  0  0  0  0
   18.0751   -7.4545   -6.0847 H   0  0  0  0  0  0  0  0  0  0  0  0
   18.1568   -7.5389   -4.3057 H   0  0  0  0  0  0  0  0  0  0  0  0
   18.1868   -4.5942   -4.1037 H   0  0  0  0  0  0  0  0  0  0  0  0
   15.3465   -3.9797   -4.7168 H   0  0  0  0  0  0  0  0  0  0  0  0
   15.0795   -4.7075   -1.0787 H   0  0  0  0  0  0  0  0  0  0  0  0
   16.1675   -5.5859   -2.1497 H   0  0  0  0  0  0  0  0  0  0  0  0
   14.5340   -5.2000   -2.6803 H   0  0  0  0  0  0  0  0  0  0  0  0
   16.8326   -2.9283   -0.8007 H   0  0  0  0  0  0  0  0  0  0  0  0
   17.4187   -1.9988   -2.1760 H   0  0  0  0  0  0  0  0  0  0  0  0
   17.9363   -3.6665   -1.9477 H   0  0  0  0  0  0  0  0  0  0  0  0
   15.0228   -1.4876   -2.9214 H   0  0  0  0  0  0  0  0  0  0  0  0
   14.5225   -2.3089   -1.4540 H   0  0  0  0  0  0  0  0  0  0  0  0
   13.8356   -2.7784   -3.0212 H   0  0  0  0  0  0  0  0  0  0  0  0
   17.3378   -0.9219   -7.0649 H   0  0  0  0  0  0  0  0  0  0  0  0
   18.4178    0.9729   -7.1609 H   0  0  0  0  0  0  0  0  0  0  0  0
   18.5390    2.5990   -4.6899 H   0  0  0  0  0  0  0  0  0  0  0  0
   19.6688    2.5873   -6.0452 H   0  0  0  0  0  0  0  0  0  0  0  0
   16.1553    3.5708   -5.1233 H   0  0  0  0  0  0  0  0  0  0  0  0
   14.9843    5.4648   -6.0833 H   0  0  0  0  0  0  0  0  0  0  0  0
   12.7144    6.4564   -9.3295 H   0  0  0  0  0  0  0  0  0  0  0  0
   13.0445    5.9757   -7.6626 H   0  0  0  0  0  0  0  0  0  0  0  0
   13.9382    5.2293   -9.0054 H   0  0  0  0  0  0  0  0  0  0  0  0
   15.1665   10.3457   -9.0902 H   0  0  0  0  0  0  0  0  0  0  0  0
   18.2791    6.1380   -8.7586 H   0  0  0  0  0  0  0  0  0  0  0  0
   19.4520    4.2417   -7.7876 H   0  0  0  0  0  0  0  0  0  0  0  0
   15.3279    0.9746   -7.5352 H   0  0  0  0  0  0  0  0  0  0  0  0
   15.3603   -0.6223   -8.2722 H   0  0  0  0  0  0  0  0  0  0  0  0
   13.9052    0.1967   -5.7072 H   0  0  0  0  0  0  0  0  0  0  0  0
   12.6850    0.1233   -7.6346 H   0  0  0  0  0  0  0  0  0  0  0  0
   14.5781   -2.6292   -6.6502 H   0  0  0  0  0  0  0  0  0  0  0  0
   14.0327   -2.1481   -5.0393 H   0  0  0  0  0  0  0  0  0  0  0  0
  1 34  1  0  0  0  0
  1 35  1  0  0  0  0
  1 36  1  0  0  0  0
  1  2  1  0  0  0  0
  2  3  2  0  0  0  0
  2  4  1  0  0  0  0
  4 37  1  0  0  0  0
  5  4  1  0  0  0  0
  5 38  1  0  0  0  0
  5  6  1  0  0  0  0
  5 10  1  0  0  0  0
  6  7  1  0  0  0  0
  6  8  1  0  0  0  0
  6  9  1  0  0  0  0
  7 39  1  0  0  0  0
  7 40  1  0  0  0  0
  7 41  1  0  0  0  0
  8 42  1  0  0  0  0
  8 43  1  0  0  0  0
  8 44  1  0  0  0  0
  9 45  1  0  0  0  0
  9 46  1  0  0  0  0
  9 47  1  0  0  0  0
 10 11  2  0  0  0  0
 10 12  1  0  0  0  0
 12 33  1  0  0  0  0
 13 12  1  0  0  0  0
 13 30  1  0  0  0  0
 13 48  1  0  0  0  0
 13 14  1  0  0  0  0
 14 15  2  0  0  0  0
 14 16  1  0  0  0  0
 16 49  1  0  0  0  0
 16 17  1  0  0  0  0
 17 50  1  0  0  0  0
 17 51  1  0  0  0  0
 17 18  1  0  0  0  0
 18 19  1  0  0  0  0
 18 29  2  0  0  0  0
 19 52  1  0  0  0  0
 19 20  2  0  0  0  0
 20 53  1  0  0  0  0
 20 21  1  0  0  0  0
 21 28  2  0  0  0  0
 21 22  1  0  0  0  0
 22 23  2  0  0  0  0
 22 27  1  0  0  0  0
 23 24  1  0  0  0  0
 23 25  1  0  0  0  0
 24 54  1  0  0  0  0
 24 55  1  0  0  0  0
 24 56  1  0  0  0  0
 25 26  2  0  0  0  0
 26 57  1  0  0  0  0
 26 27  1  0  0  0  0
 28 58  1  0  0  0  0
 28 29  1  0  0  0  0
 29 59  1  0  0  0  0
 31 30  1  0  0  0  0
 30 60  1  0  0  0  0
 30 61  1  0  0  0  0
 31 33  1  0  0  0  0
 31 62  1  0  0  0  0
 31 32  1  0  0  0  0
 32 63  1  0  0  0  0
 33 64  1  0  0  0  0
 33 65  1  0  0  0  0
M  ZZC   1 c1
M  ZZC   2 c2
M  ZZC   3 o1
M  ZZC   4 n1
M  ZZC   5 c3
M  ZZC   6 c4
M  ZZC   7 c5
M  ZZC   8 c6
M  ZZC   9 c7
M  ZZC  10 c8
M  ZZC  11 o2
M  ZZC  12 n2
M  ZZC  13 c9
M  ZZC  14 c10
M  ZZC  15 o3
M  ZZC  16 n3
M  ZZC  17 c11
M  ZZC  18 c12
M  ZZC  19 c13
M  ZZC  20 c14
M  ZZC  21 c15
M  ZZC  22 c16
M  ZZC  23 c17
M  ZZC  24 c18
M  ZZC  25 n4
M  ZZC  26 c19
M  ZZC  27 s1
M  ZZC  28 c20
M  ZZC  29 c21
M  ZZC  30 c22
M  ZZC  31 c23
M  ZZC  32 o4
M  ZZC  33 c24
M  ZZC  34 h11
M  ZZC  35 h12
M  ZZC  36 h13
M  ZZC  37 h01
M  ZZC  38 h31
M  ZZC  39 h51
M  ZZC  40 h52
M  ZZC  41 h53
M  ZZC  42 h61
M  ZZC  43 h62
M  ZZC  44 h63
M  ZZC  45 h71
M  ZZC  46 h72
M  ZZC  47 h73
M  ZZC  48 h91
M  ZZC  49 h02
M  ZZC  50 h111
M  ZZC  51 h112
M  ZZC  52 h131
M  ZZC  53 h141
M  ZZC  54 h181
M  ZZC  55 h182
M  ZZC  56 h183
M  ZZC  57 h191
M  ZZC  58 h201
M  ZZC  59 h211
M  ZZC  60 h221
M  ZZC  61 h222
M  ZZC  62 h231
M  ZZC  63 h41
M  ZZC  64 h241
M  ZZC  65 h242
M  ZZM   1 1
M  ZZI   1 111
M  ZZM   2 3
M  ZZI   2 121
M  ZZM   3 7
M  ZZI   3 81
M  ZZM   4 10
M  ZZI   4 211
M  ZZM   5 1
M  ZZI   5 113
M  ZZM   6 1
M  ZZI   6 110
M  ZZM   7 1
M  ZZI   7 111
M  ZZM   8 1
M  ZZI   8 111
M  ZZM   9 1
M  ZZI   9 111
M  ZZM  10 3
M  ZZI  10 121
M  ZZM  11 7
M  ZZI  11 81
M  ZZM  12 10
M  ZZI  12 192
M  ZZM  13 1
M  ZZI  13 113
M  ZZM  14 3
M  ZZI  14 121
M  ZZM  15 7
M  ZZI  15 81
M  ZZM  16 10
M  ZZI  16 211
M  ZZM  17 1
M  ZZI  17 112
M  ZZM  18 37
M  ZZI  18 124
M  ZZM  19 37
M  ZZI  19 125
M  ZZM  20 37
M  ZZI  20 125
M  ZZM  21 37
M  ZZI  21 124
M  ZZM  22 63
M  ZZI  22 104
M  ZZM  23 64
M  ZZI  23 105
M  ZZM  24 1
M  ZZI  24 111
M  ZZM  25 66
M  ZZI  25 222
M  ZZM  26 63
M  ZZI  26 104
M  ZZM  27 44
M  ZZI  27 248
M  ZZM  28 37
M  ZZI  28 125
M  ZZM  29 37
M  ZZI  29 125
M  ZZM  30 1
M  ZZI  30 112
M  ZZM  31 1
M  ZZI  31 113
M  ZZM  32 6
M  ZZI  32 60
M  ZZM  33 1
M  ZZI  33 112
M  ZZM  34 5
M  ZZI  34 1
M  ZZM  35 5
M  ZZI  35 1
M  ZZM  36 5
M  ZZI  36 1
M  ZZM  37 28
M  ZZI  37 11
M  ZZM  38 5
M  ZZI  38 1
M  ZZM  39 5
M  ZZI  39 1
M  ZZM  40 5
M  ZZI  40 1
M  ZZM  41 5
M  ZZI  41 1
M  ZZM  42 5
M  ZZI  42 1
M  ZZM  43 5
M  ZZI  43 1
M  ZZM  44 5
M  ZZI  44 1
M  ZZM  45 5
M  ZZI  45 1
M  ZZM  46 5
M  ZZI  46 1
M  ZZM  47 5
M  ZZI  47 1
M  ZZM  48 5
M  ZZI  48 1
M  ZZM  49 28
M  ZZI  49 11
M  ZZM  50 5
M  ZZI  50 1
M  ZZM  51 5
M  ZZI  51 1
M  ZZM  52 5
M  ZZI  52 1
M  ZZM  53 5
M  ZZI  53 1
M  ZZM  54 5
M  ZZI  54 1
M  ZZM  55 5
M  ZZI  55 1
M  ZZM  56 5
M  ZZI  56 1
M  ZZM  57 5
M  ZZI  57 1
M  ZZM  58 5
M  ZZI  58 1
M  ZZM  59 5
M  ZZI  59 1
M  ZZM  60 5
M  ZZI  60 1
M  ZZM  61 5
M  ZZI  61 1
M  ZZM  62 5
M  ZZI  62 1
M  ZZM  63 21
M  ZZI  63 20
M  ZZM  64 5
M  ZZI  64 1
M  ZZM  65 5
M  ZZI  65 1
M  END
> <IX>
1

> <NAME>
VHL_5T8E_39.pdb

> <Score>
-4.951676

> <Natom>
65

> <Nflex>
8

> <Hbond>
-4.21353

> <Hphob>
-6.388038

> <VwInt>
-27.111681

> <Dsolv>
22.46895

> <SolEl>
20.373715

> <Eintl>
3.336428

> <RecConf>
ND

> <projPath>
VHL_maps/

> <NAME_>
VHL_5T8E_39.pdb

$$$$
