VHL_2GQG_10.pdb
  MOLSOFT 04032206353D

 65 67  0  0  1  0  0  0  0  0999 V2000
   18.1026   -6.7236   -5.1265 C   0  0  0  0  0  0  0  0  0  0  0  0
   16.8994   -5.8305   -4.9929 C   0  0  0  0  0  0  0  0  0  0  0  0
   15.8130   -6.1771   -5.4233 O   0  0  0  0  0  0  0  0  0  0  0  0
   17.1533   -4.6495   -4.3238 N   0  0  0  0  0  0  0  0  0  0  0  0
   16.1579   -3.5951   -4.0699 C   0  0  1  0  0  0  0  0  0  0  0  0
   15.8572   -3.4347   -2.5506 C   0  0  0  0  0  0  0  0  0  0  0  0
   14.7398   -2.4197   -2.2822 C   0  0  0  0  0  0  0  0  0  0  0  0
   17.0912   -2.9856   -1.7549 C   0  0  0  0  0  0  0  0  0  0  0  0
   15.3708   -4.7858   -2.0101 C   0  0  0  0  0  0  0  0  0  0  0  0
   16.7199   -2.3517   -4.7895 C   0  0  0  0  0  0  0  0  0  0  0  0
   17.9227   -2.1184   -4.7859 O   0  0  0  0  0  0  0  0  0  0  0  0
   15.8289   -1.5266   -5.4817 N   0  0  0  0  0  0  0  0  0  0  0  0
   16.3212   -0.5827   -6.4736 C   0  0  2  0  0  0  0  0  0  0  0  0
   16.7214    0.7667   -5.8703 C   0  0  0  0  0  0  0  0  0  0  0  0
   16.1845    1.2388   -4.8773 O   0  0  0  0  0  0  0  0  0  0  0  0
   17.6924    1.4219   -6.6062 N   0  0  0  0  0  0  0  0  0  0  0  0
   18.1526    2.7578   -6.2633 C   0  0  0  0  0  0  0  0  0  0  0  0
   19.6076    3.0441   -6.5631 C   0  0  0  0  0  0  0  0  0  0  0  0
   20.1445    4.2752   -6.1938 C   0  0  0  0  0  0  0  0  0  0  0  0
   21.4793    4.5810   -6.4134 C   0  0  0  0  0  0  0  0  0  0  0  0
   22.3267    3.6640   -7.0250 C   0  0  0  0  0  0  0  0  0  0  0  0
   23.7494    3.9284   -7.2156 C   0  0  0  0  0  0  0  0  0  0  0  0
   24.5479    3.8645   -8.3525 C   0  0  0  0  0  0  0  0  0  0  0  0
   24.1201    3.5728   -9.7389 C   0  0  0  0  0  0  0  0  0  0  0  0
   25.8908    4.0983   -8.1395 N   0  0  0  0  0  0  0  0  0  0  0  0
   26.1022    4.3539   -6.8690 C   0  0  0  0  0  0  0  0  0  0  0  0
   24.7269    4.3400   -5.8585 S   0  0  0  0  0  0  0  0  0  0  0  0
   21.7846    2.4499   -7.4193 C   0  0  0  0  0  0  0  0  0  0  0  0
   20.4590    2.1384   -7.1879 C   0  0  0  0  0  0  0  0  0  0  0  0
   15.1552   -0.4297   -7.4361 C   0  0  0  0  0  0  0  0  0  0  0  0
   13.9332   -0.5603   -6.5422 C   0  0  1  0  0  0  0  0  0  0  0  0
   12.8361   -1.1008   -7.2740 O   0  0  0  0  0  0  0  0  0  0  0  0
   14.3767   -1.5147   -5.4418 C   0  0  0  0  0  0  0  0  0  0  0  0
   19.0239   -6.1379   -5.1996 H   0  0  0  0  0  0  0  0  0  0  0  0
   18.0063   -7.3298   -6.0323 H   0  0  0  0  0  0  0  0  0  0  0  0
   18.1534   -7.3829   -4.2566 H   0  0  0  0  0  0  0  0  0  0  0  0
   18.1135   -4.4566   -4.0608 H   0  0  0  0  0  0  0  0  0  0  0  0
   15.2365   -3.9015   -4.5629 H   0  0  0  0  0  0  0  0  0  0  0  0
   15.0389   -1.4088   -2.5786 H   0  0  0  0  0  0  0  0  0  0  0  0
   14.4874   -2.3760   -1.2183 H   0  0  0  0  0  0  0  0  0  0  0  0
   13.8358   -2.6542   -2.8508 H   0  0  0  0  0  0  0  0  0  0  0  0
   16.8750   -2.9273   -0.6832 H   0  0  0  0  0  0  0  0  0  0  0  0
   17.4403   -1.9970   -2.0687 H   0  0  0  0  0  0  0  0  0  0  0  0
   17.9225   -3.6785   -1.8731 H   0  0  0  0  0  0  0  0  0  0  0  0
   15.0893   -4.7093   -0.9574 H   0  0  0  0  0  0  0  0  0  0  0  0
   16.1389   -5.5575   -2.0904 H   0  0  0  0  0  0  0  0  0  0  0  0
   14.4929   -5.1446   -2.5569 H   0  0  0  0  0  0  0  0  0  0  0  0
   17.1909   -1.0077   -6.9822 H   0  0  0  0  0  0  0  0  0  0  0  0
   18.0502    0.9741   -7.4433 H   0  0  0  0  0  0  0  0  0  0  0  0
   17.5255    3.4533   -6.8314 H   0  0  0  0  0  0  0  0  0  0  0  0
   17.9653    2.9295   -5.1979 H   0  0  0  0  0  0  0  0  0  0  0  0
   19.5158    5.0153   -5.7070 H   0  0  0  0  0  0  0  0  0  0  0  0
   21.8536    5.5493   -6.0949 H   0  0  0  0  0  0  0  0  0  0  0  0
   24.0690    2.4943   -9.9043 H   0  0  0  0  0  0  0  0  0  0  0  0
   24.8282    3.9878  -10.4617 H   0  0  0  0  0  0  0  0  0  0  0  0
   23.1399    4.0075   -9.9511 H   0  0  0  0  0  0  0  0  0  0  0  0
   27.0884    4.5626   -6.4791 H   0  0  0  0  0  0  0  0  0  0  0  0
   22.4061    1.7030   -7.8962 H   0  0  0  0  0  0  0  0  0  0  0  0
   20.1166    1.1562   -7.4888 H   0  0  0  0  0  0  0  0  0  0  0  0
   15.1603    0.5168   -7.9871 H   0  0  0  0  0  0  0  0  0  0  0  0
   15.1670   -1.2346   -8.1803 H   0  0  0  0  0  0  0  0  0  0  0  0
   13.6457    0.4163   -6.1351 H   0  0  0  0  0  0  0  0  0  0  0  0
   12.0157   -0.8556   -6.8106 H   0  0  0  0  0  0  0  0  0  0  0  0
   13.9726   -2.5217   -5.5470 H   0  0  0  0  0  0  0  0  0  0  0  0
   14.0494   -1.1241   -4.4780 H   0  0  0  0  0  0  0  0  0  0  0  0
  1 34  1  0  0  0  0
  1 35  1  0  0  0  0
  1 36  1  0  0  0  0
  1  2  1  0  0  0  0
  2  3  2  0  0  0  0
  2  4  1  0  0  0  0
  4 37  1  0  0  0  0
  5  4  1  0  0  0  0
  5 38  1  0  0  0  0
  5  6  1  0  0  0  0
  5 10  1  0  0  0  0
  6  7  1  0  0  0  0
  6  8  1  0  0  0  0
  6  9  1  0  0  0  0
  7 39  1  0  0  0  0
  7 40  1  0  0  0  0
  7 41  1  0  0  0  0
  8 42  1  0  0  0  0
  8 43  1  0  0  0  0
  8 44  1  0  0  0  0
  9 45  1  0  0  0  0
  9 46  1  0  0  0  0
  9 47  1  0  0  0  0
 10 11  2  0  0  0  0
 10 12  1  0  0  0  0
 12 33  1  0  0  0  0
 13 12  1  0  0  0  0
 13 30  1  0  0  0  0
 13 48  1  0  0  0  0
 13 14  1  0  0  0  0
 14 15  2  0  0  0  0
 14 16  1  0  0  0  0
 16 49  1  0  0  0  0
 16 17  1  0  0  0  0
 17 50  1  0  0  0  0
 17 51  1  0  0  0  0
 17 18  1  0  0  0  0
 18 19  1  0  0  0  0
 18 29  2  0  0  0  0
 19 52  1  0  0  0  0
 19 20  2  0  0  0  0
 20 53  1  0  0  0  0
 20 21  1  0  0  0  0
 21 28  2  0  0  0  0
 21 22  1  0  0  0  0
 22 23  2  0  0  0  0
 22 27  1  0  0  0  0
 23 24  1  0  0  0  0
 23 25  1  0  0  0  0
 24 54  1  0  0  0  0
 24 55  1  0  0  0  0
 24 56  1  0  0  0  0
 25 26  2  0  0  0  0
 26 57  1  0  0  0  0
 26 27  1  0  0  0  0
 28 58  1  0  0  0  0
 28 29  1  0  0  0  0
 29 59  1  0  0  0  0
 31 30  1  0  0  0  0
 30 60  1  0  0  0  0
 30 61  1  0  0  0  0
 31 33  1  0  0  0  0
 31 62  1  0  0  0  0
 31 32  1  0  0  0  0
 32 63  1  0  0  0  0
 33 64  1  0  0  0  0
 33 65  1  0  0  0  0
M  ZZC   1 c1
M  ZZC   2 c2
M  ZZC   3 o1
M  ZZC   4 n1
M  ZZC   5 c3
M  ZZC   6 c4
M  ZZC   7 c5
M  ZZC   8 c6
M  ZZC   9 c7
M  ZZC  10 c8
M  ZZC  11 o2
M  ZZC  12 n2
M  ZZC  13 c9
M  ZZC  14 c10
M  ZZC  15 o3
M  ZZC  16 n3
M  ZZC  17 c11
M  ZZC  18 c12
M  ZZC  19 c13
M  ZZC  20 c14
M  ZZC  21 c15
M  ZZC  22 c16
M  ZZC  23 c17
M  ZZC  24 c18
M  ZZC  25 n4
M  ZZC  26 c19
M  ZZC  27 s1
M  ZZC  28 c20
M  ZZC  29 c21
M  ZZC  30 c22
M  ZZC  31 c23
M  ZZC  32 o4
M  ZZC  33 c24
M  ZZC  34 h11
M  ZZC  35 h12
M  ZZC  36 h13
M  ZZC  37 h01
M  ZZC  38 h31
M  ZZC  39 h51
M  ZZC  40 h52
M  ZZC  41 h53
M  ZZC  42 h61
M  ZZC  43 h62
M  ZZC  44 h63
M  ZZC  45 h71
M  ZZC  46 h72
M  ZZC  47 h73
M  ZZC  48 h91
M  ZZC  49 h02
M  ZZC  50 h111
M  ZZC  51 h112
M  ZZC  52 h131
M  ZZC  53 h141
M  ZZC  54 h181
M  ZZC  55 h182
M  ZZC  56 h183
M  ZZC  57 h191
M  ZZC  58 h201
M  ZZC  59 h211
M  ZZC  60 h221
M  ZZC  61 h222
M  ZZC  62 h231
M  ZZC  63 h41
M  ZZC  64 h241
M  ZZC  65 h242
M  ZZM   1 1
M  ZZI   1 111
M  ZZM   2 3
M  ZZI   2 121
M  ZZM   3 7
M  ZZI   3 81
M  ZZM   4 10
M  ZZI   4 211
M  ZZM   5 1
M  ZZI   5 113
M  ZZM   6 1
M  ZZI   6 110
M  ZZM   7 1
M  ZZI   7 111
M  ZZM   8 1
M  ZZI   8 111
M  ZZM   9 1
M  ZZI   9 111
M  ZZM  10 3
M  ZZI  10 121
M  ZZM  11 7
M  ZZI  11 81
M  ZZM  12 10
M  ZZI  12 192
M  ZZM  13 1
M  ZZI  13 113
M  ZZM  14 3
M  ZZI  14 121
M  ZZM  15 7
M  ZZI  15 81
M  ZZM  16 10
M  ZZI  16 211
M  ZZM  17 1
M  ZZI  17 112
M  ZZM  18 37
M  ZZI  18 124
M  ZZM  19 37
M  ZZI  19 125
M  ZZM  20 37
M  ZZI  20 125
M  ZZM  21 37
M  ZZI  21 124
M  ZZM  22 63
M  ZZI  22 104
M  ZZM  23 64
M  ZZI  23 105
M  ZZM  24 1
M  ZZI  24 111
M  ZZM  25 66
M  ZZI  25 222
M  ZZM  26 63
M  ZZI  26 104
M  ZZM  27 44
M  ZZI  27 248
M  ZZM  28 37
M  ZZI  28 125
M  ZZM  29 37
M  ZZI  29 125
M  ZZM  30 1
M  ZZI  30 112
M  ZZM  31 1
M  ZZI  31 113
M  ZZM  32 6
M  ZZI  32 60
M  ZZM  33 1
M  ZZI  33 112
M  ZZM  34 5
M  ZZI  34 1
M  ZZM  35 5
M  ZZI  35 1
M  ZZM  36 5
M  ZZI  36 1
M  ZZM  37 28
M  ZZI  37 11
M  ZZM  38 5
M  ZZI  38 1
M  ZZM  39 5
M  ZZI  39 1
M  ZZM  40 5
M  ZZI  40 1
M  ZZM  41 5
M  ZZI  41 1
M  ZZM  42 5
M  ZZI  42 1
M  ZZM  43 5
M  ZZI  43 1
M  ZZM  44 5
M  ZZI  44 1
M  ZZM  45 5
M  ZZI  45 1
M  ZZM  46 5
M  ZZI  46 1
M  ZZM  47 5
M  ZZI  47 1
M  ZZM  48 5
M  ZZI  48 1
M  ZZM  49 28
M  ZZI  49 11
M  ZZM  50 5
M  ZZI  50 1
M  ZZM  51 5
M  ZZI  51 1
M  ZZM  52 5
M  ZZI  52 1
M  ZZM  53 5
M  ZZI  53 1
M  ZZM  54 5
M  ZZI  54 1
M  ZZM  55 5
M  ZZI  55 1
M  ZZM  56 5
M  ZZI  56 1
M  ZZM  57 5
M  ZZI  57 1
M  ZZM  58 5
M  ZZI  58 1
M  ZZM  59 5
M  ZZI  59 1
M  ZZM  60 5
M  ZZI  60 1
M  ZZM  61 5
M  ZZI  61 1
M  ZZM  62 5
M  ZZI  62 1
M  ZZM  63 21
M  ZZI  63 20
M  ZZM  64 5
M  ZZI  64 1
M  ZZM  65 5
M  ZZI  65 1
M  END
> <IX>
1

> <NAME>
VHL_2GQG_10.pdb

> <Score>
-13.103471

> <Natom>
65

> <Nflex>
8

> <Hbond>
-5.070866

> <Hphob>
-6.481395

> <VwInt>
-28.695607

> <Dsolv>
16.860933

> <SolEl>
15.176616

> <Eintl>
8.836158

> <RecConf>
ND

> <projPath>
VHL_maps/

> <NAME_>
VHL_2GQG_10.pdb

$$$$
