VHL_2GQG_23.pdb
  MOLSOFT 04032206383D

 65 67  0  0  1  0  0  0  0  0999 V2000
   18.4180   -7.0487   -5.3806 C   0  0  0  0  0  0  0  0  0  0  0  0
   17.2382   -6.1172   -5.3448 C   0  0  0  0  0  0  0  0  0  0  0  0
   16.1430   -6.4781   -5.7454 O   0  0  0  0  0  0  0  0  0  0  0  0
   17.5250   -4.8775   -4.8058 N   0  0  0  0  0  0  0  0  0  0  0  0
   16.5479   -3.7904   -4.7025 C   0  0  1  0  0  0  0  0  0  0  0  0
   15.8942   -3.6762   -3.2848 C   0  0  0  0  0  0  0  0  0  0  0  0
   14.6368   -2.7945   -3.3422 C   0  0  0  0  0  0  0  0  0  0  0  0
   15.4536   -5.0531   -2.7668 C   0  0  0  0  0  0  0  0  0  0  0  0
   16.8569   -3.0762   -2.2474 C   0  0  0  0  0  0  0  0  0  0  0  0
   17.2487   -2.4911   -5.1402 C   0  0  0  0  0  0  0  0  0  0  0  0
   18.3948   -2.2420   -4.7954 O   0  0  0  0  0  0  0  0  0  0  0  0
   16.5133   -1.5563   -5.8694 N   0  0  0  0  0  0  0  0  0  0  0  0
   17.0451   -0.2219   -6.1131 C   0  0  2  0  0  0  0  0  0  0  0  0
   17.0929    0.6367   -4.8525 C   0  0  0  0  0  0  0  0  0  0  0  0
   16.3237    0.4943   -3.9116 O   0  0  0  0  0  0  0  0  0  0  0  0
   18.0165    1.6600   -4.9468 N   0  0  0  0  0  0  0  0  0  0  0  0
   17.9785    2.7992   -4.0564 C   0  0  0  0  0  0  0  0  0  0  0  0
   17.0603    3.8407   -4.6391 C   0  0  0  0  0  0  0  0  0  0  0  0
   17.5269    4.7316   -5.5987 C   0  0  0  0  0  0  0  0  0  0  0  0
   16.6557    5.5862   -6.2491 C   0  0  0  0  0  0  0  0  0  0  0  0
   15.2924    5.5694   -5.9645 C   0  0  0  0  0  0  0  0  0  0  0  0
   14.3642    6.4063   -6.7136 C   0  0  0  0  0  0  0  0  0  0  0  0
   13.3503    7.2612   -6.2954 C   0  0  0  0  0  0  0  0  0  0  0  0
   12.9366    7.5582   -4.9037 C   0  0  0  0  0  0  0  0  0  0  0  0
   12.6677    7.8941   -7.3140 N   0  0  0  0  0  0  0  0  0  0  0  0
   13.1322    7.4882   -8.4726 C   0  0  0  0  0  0  0  0  0  0  0  0
   14.4168    6.3757   -8.4336 S   0  0  0  0  0  0  0  0  0  0  0  0
   14.8332    4.7052   -4.9762 C   0  0  0  0  0  0  0  0  0  0  0  0
   15.7051    3.8522   -4.3231 C   0  0  0  0  0  0  0  0  0  0  0  0
   16.0825    0.4258   -7.1052 C   0  0  0  0  0  0  0  0  0  0  0  0
   15.4256   -0.7496   -7.7980 C   0  0  1  0  0  0  0  0  0  0  0  0
   16.2194   -1.1720   -8.9159 O   0  0  0  0  0  0  0  0  0  0  0  0
   15.3754   -1.8283   -6.7238 C   0  0  0  0  0  0  0  0  0  0  0  0
   19.3622   -6.5053   -5.2812 H   0  0  0  0  0  0  0  0  0  0  0  0
   18.4266   -7.5769   -6.3374 H   0  0  0  0  0  0  0  0  0  0  0  0
   18.3220   -7.7722   -4.5681 H   0  0  0  0  0  0  0  0  0  0  0  0
   18.4677   -4.6978   -4.4809 H   0  0  0  0  0  0  0  0  0  0  0  0
   15.7815   -4.0229   -5.4291 H   0  0  0  0  0  0  0  0  0  0  0  0
   14.8682   -1.7639   -3.6195 H   0  0  0  0  0  0  0  0  0  0  0  0
   14.1317   -2.7532   -2.3717 H   0  0  0  0  0  0  0  0  0  0  0  0
   13.9121   -3.1788   -4.0666 H   0  0  0  0  0  0  0  0  0  0  0  0
   14.9520   -4.9773   -1.7969 H   0  0  0  0  0  0  0  0  0  0  0  0
   16.2986   -5.7334   -2.6322 H   0  0  0  0  0  0  0  0  0  0  0  0
   14.7496   -5.5241   -3.4536 H   0  0  0  0  0  0  0  0  0  0  0  0
   16.4223   -3.0940   -1.2426 H   0  0  0  0  0  0  0  0  0  0  0  0
   17.1006   -2.0324   -2.4662 H   0  0  0  0  0  0  0  0  0  0  0  0
   17.7960   -3.6308   -2.2027 H   0  0  0  0  0  0  0  0  0  0  0  0
   18.0508   -0.3176   -6.5273 H   0  0  0  0  0  0  0  0  0  0  0  0
   18.6511    1.6979   -5.7370 H   0  0  0  0  0  0  0  0  0  0  0  0
   17.6404    2.4903   -3.0613 H   0  0  0  0  0  0  0  0  0  0  0  0
   18.9982    3.1861   -3.9574 H   0  0  0  0  0  0  0  0  0  0  0  0
   18.5779    4.7418   -5.8729 H   0  0  0  0  0  0  0  0  0  0  0  0
   17.0556    6.2576   -7.0037 H   0  0  0  0  0  0  0  0  0  0  0  0
   12.3556    6.7314   -4.4859 H   0  0  0  0  0  0  0  0  0  0  0  0
   12.3059    8.4495   -4.8675 H   0  0  0  0  0  0  0  0  0  0  0  0
   13.8026    7.7400   -4.2611 H   0  0  0  0  0  0  0  0  0  0  0  0
   12.7299    7.8294   -9.4106 H   0  0  0  0  0  0  0  0  0  0  0  0
   13.7753    4.6553   -4.7350 H   0  0  0  0  0  0  0  0  0  0  0  0
   15.3082    3.1559   -3.5895 H   0  0  0  0  0  0  0  0  0  0  0  0
   15.3221    1.0191   -6.5840 H   0  0  0  0  0  0  0  0  0  0  0  0
   16.6082    1.0899   -7.7996 H   0  0  0  0  0  0  0  0  0  0  0  0
   14.4300   -0.4992   -8.1673 H   0  0  0  0  0  0  0  0  0  0  0  0
   17.1560   -1.0914   -8.6564 H   0  0  0  0  0  0  0  0  0  0  0  0
   15.4460   -2.8328   -7.1478 H   0  0  0  0  0  0  0  0  0  0  0  0
   14.4724   -1.7383   -6.1125 H   0  0  0  0  0  0  0  0  0  0  0  0
  1 34  1  0  0  0  0
  1 35  1  0  0  0  0
  1 36  1  0  0  0  0
  1  2  1  0  0  0  0
  2  3  2  0  0  0  0
  2  4  1  0  0  0  0
  4 37  1  0  0  0  0
  5  4  1  0  0  0  0
  5 38  1  0  0  0  0
  5  6  1  0  0  0  0
  5 10  1  0  0  0  0
  6  7  1  0  0  0  0
  6  8  1  0  0  0  0
  6  9  1  0  0  0  0
  7 39  1  0  0  0  0
  7 40  1  0  0  0  0
  7 41  1  0  0  0  0
  8 42  1  0  0  0  0
  8 43  1  0  0  0  0
  8 44  1  0  0  0  0
  9 45  1  0  0  0  0
  9 46  1  0  0  0  0
  9 47  1  0  0  0  0
 10 11  2  0  0  0  0
 10 12  1  0  0  0  0
 12 33  1  0  0  0  0
 13 12  1  0  0  0  0
 13 30  1  0  0  0  0
 13 48  1  0  0  0  0
 13 14  1  0  0  0  0
 14 15  2  0  0  0  0
 14 16  1  0  0  0  0
 16 49  1  0  0  0  0
 16 17  1  0  0  0  0
 17 50  1  0  0  0  0
 17 51  1  0  0  0  0
 17 18  1  0  0  0  0
 18 19  1  0  0  0  0
 18 29  2  0  0  0  0
 19 52  1  0  0  0  0
 19 20  2  0  0  0  0
 20 53  1  0  0  0  0
 20 21  1  0  0  0  0
 21 28  2  0  0  0  0
 21 22  1  0  0  0  0
 22 23  2  0  0  0  0
 22 27  1  0  0  0  0
 23 24  1  0  0  0  0
 23 25  1  0  0  0  0
 24 54  1  0  0  0  0
 24 55  1  0  0  0  0
 24 56  1  0  0  0  0
 25 26  2  0  0  0  0
 26 57  1  0  0  0  0
 26 27  1  0  0  0  0
 28 58  1  0  0  0  0
 28 29  1  0  0  0  0
 29 59  1  0  0  0  0
 31 30  1  0  0  0  0
 30 60  1  0  0  0  0
 30 61  1  0  0  0  0
 31 33  1  0  0  0  0
 31 62  1  0  0  0  0
 31 32  1  0  0  0  0
 32 63  1  0  0  0  0
 33 64  1  0  0  0  0
 33 65  1  0  0  0  0
M  ZZC   1 c1
M  ZZC   2 c2
M  ZZC   3 o1
M  ZZC   4 n1
M  ZZC   5 c3
M  ZZC   6 c4
M  ZZC   7 c5
M  ZZC   8 c6
M  ZZC   9 c7
M  ZZC  10 c8
M  ZZC  11 o2
M  ZZC  12 n2
M  ZZC  13 c9
M  ZZC  14 c10
M  ZZC  15 o3
M  ZZC  16 n3
M  ZZC  17 c11
M  ZZC  18 c12
M  ZZC  19 c13
M  ZZC  20 c14
M  ZZC  21 c15
M  ZZC  22 c16
M  ZZC  23 c17
M  ZZC  24 c18
M  ZZC  25 n4
M  ZZC  26 c19
M  ZZC  27 s1
M  ZZC  28 c20
M  ZZC  29 c21
M  ZZC  30 c22
M  ZZC  31 c23
M  ZZC  32 o4
M  ZZC  33 c24
M  ZZC  34 h11
M  ZZC  35 h12
M  ZZC  36 h13
M  ZZC  37 h01
M  ZZC  38 h31
M  ZZC  39 h51
M  ZZC  40 h52
M  ZZC  41 h53
M  ZZC  42 h61
M  ZZC  43 h62
M  ZZC  44 h63
M  ZZC  45 h71
M  ZZC  46 h72
M  ZZC  47 h73
M  ZZC  48 h91
M  ZZC  49 h02
M  ZZC  50 h111
M  ZZC  51 h112
M  ZZC  52 h131
M  ZZC  53 h141
M  ZZC  54 h181
M  ZZC  55 h182
M  ZZC  56 h183
M  ZZC  57 h191
M  ZZC  58 h201
M  ZZC  59 h211
M  ZZC  60 h221
M  ZZC  61 h222
M  ZZC  62 h231
M  ZZC  63 h41
M  ZZC  64 h241
M  ZZC  65 h242
M  ZZM   1 1
M  ZZI   1 111
M  ZZM   2 3
M  ZZI   2 121
M  ZZM   3 7
M  ZZI   3 81
M  ZZM   4 10
M  ZZI   4 211
M  ZZM   5 1
M  ZZI   5 113
M  ZZM   6 1
M  ZZI   6 110
M  ZZM   7 1
M  ZZI   7 111
M  ZZM   8 1
M  ZZI   8 111
M  ZZM   9 1
M  ZZI   9 111
M  ZZM  10 3
M  ZZI  10 121
M  ZZM  11 7
M  ZZI  11 81
M  ZZM  12 10
M  ZZI  12 192
M  ZZM  13 1
M  ZZI  13 113
M  ZZM  14 3
M  ZZI  14 121
M  ZZM  15 7
M  ZZI  15 81
M  ZZM  16 10
M  ZZI  16 211
M  ZZM  17 1
M  ZZI  17 112
M  ZZM  18 37
M  ZZI  18 124
M  ZZM  19 37
M  ZZI  19 125
M  ZZM  20 37
M  ZZI  20 125
M  ZZM  21 37
M  ZZI  21 124
M  ZZM  22 63
M  ZZI  22 104
M  ZZM  23 64
M  ZZI  23 105
M  ZZM  24 1
M  ZZI  24 111
M  ZZM  25 66
M  ZZI  25 222
M  ZZM  26 63
M  ZZI  26 104
M  ZZM  27 44
M  ZZI  27 248
M  ZZM  28 37
M  ZZI  28 125
M  ZZM  29 37
M  ZZI  29 125
M  ZZM  30 1
M  ZZI  30 112
M  ZZM  31 1
M  ZZI  31 113
M  ZZM  32 6
M  ZZI  32 60
M  ZZM  33 1
M  ZZI  33 112
M  ZZM  34 5
M  ZZI  34 1
M  ZZM  35 5
M  ZZI  35 1
M  ZZM  36 5
M  ZZI  36 1
M  ZZM  37 28
M  ZZI  37 11
M  ZZM  38 5
M  ZZI  38 1
M  ZZM  39 5
M  ZZI  39 1
M  ZZM  40 5
M  ZZI  40 1
M  ZZM  41 5
M  ZZI  41 1
M  ZZM  42 5
M  ZZI  42 1
M  ZZM  43 5
M  ZZI  43 1
M  ZZM  44 5
M  ZZI  44 1
M  ZZM  45 5
M  ZZI  45 1
M  ZZM  46 5
M  ZZI  46 1
M  ZZM  47 5
M  ZZI  47 1
M  ZZM  48 5
M  ZZI  48 1
M  ZZM  49 28
M  ZZI  49 11
M  ZZM  50 5
M  ZZI  50 1
M  ZZM  51 5
M  ZZI  51 1
M  ZZM  52 5
M  ZZI  52 1
M  ZZM  53 5
M  ZZI  53 1
M  ZZM  54 5
M  ZZI  54 1
M  ZZM  55 5
M  ZZI  55 1
M  ZZM  56 5
M  ZZI  56 1
M  ZZM  57 5
M  ZZI  57 1
M  ZZM  58 5
M  ZZI  58 1
M  ZZM  59 5
M  ZZI  59 1
M  ZZM  60 5
M  ZZI  60 1
M  ZZM  61 5
M  ZZI  61 1
M  ZZM  62 5
M  ZZI  62 1
M  ZZM  63 21
M  ZZI  63 20
M  ZZM  64 5
M  ZZI  64 1
M  ZZM  65 5
M  ZZI  65 1
M  END
> <IX>
1

> <NAME>
VHL_2GQG_23.pdb

> <Score>
-25.523912

> <Natom>
65

> <Nflex>
8

> <Hbond>
-8.00227

> <Hphob>
-6.490731

> <VwInt>
-29.516461

> <Dsolv>
20.211582

> <SolEl>
8.511212

> <Eintl>
5.018327

> <RecConf>
ND

> <projPath>
VHL_maps/

> <NAME_>
VHL_2GQG_23.pdb

$$$$
