VHL_1S9I_3.pdb
  MOLSOFT 04032206353D

 68 70  0  0  1  0  0  0  0  0999 V2000
   18.5858   -6.7334   -5.5082 C   0  0  0  0  0  0  0  0  0  0  0  0
   17.3489   -5.8792   -5.4293 C   0  0  0  0  0  0  0  0  0  0  0  0
   16.2585   -6.3288   -5.7459 O   0  0  0  0  0  0  0  0  0  0  0  0
   17.5821   -4.6000   -4.9560 N   0  0  0  0  0  0  0  0  0  0  0  0
   16.5396   -3.5819   -4.7884 C   0  0  1  0  0  0  0  0  0  0  0  0
   15.9049   -3.5853   -3.3560 C   0  0  0  0  0  0  0  0  0  0  0  0
   16.8406   -2.9503   -2.3162 C   0  0  0  0  0  0  0  0  0  0  0  0
   14.5771   -2.8149   -3.3587 C   0  0  0  0  0  0  0  0  0  0  0  0
   15.5825   -5.0081   -2.8730 C   0  0  0  0  0  0  0  0  0  0  0  0
   17.1634   -2.2200   -5.1695 C   0  0  0  0  0  0  0  0  0  0  0  0
   18.2946   -1.9299   -4.8087 O   0  0  0  0  0  0  0  0  0  0  0  0
   16.3938   -1.2917   -5.8788 N   0  0  0  0  0  0  0  0  0  0  0  0
   16.9118    0.0551   -6.1459 C   0  0  2  0  0  0  0  0  0  0  0  0
   16.8824    0.9936   -4.9369 C   0  0  0  0  0  0  0  0  0  0  0  0
   17.6767    1.9174   -4.8338 O   0  0  0  0  0  0  0  0  0  0  0  0
   15.7906    0.8307   -4.1039 N   0  0  0  0  0  0  0  0  0  0  0  0
   15.4811    1.7384   -3.0110 C   0  0  1  0  0  0  0  0  0  0  0  0
   14.3871    2.7152   -3.4455 C   0  0  0  0  0  0  0  0  0  0  0  0
   15.1577    0.9620   -1.7481 C   0  0  0  0  0  0  0  0  0  0  0  0
   13.8611    0.6023   -1.3786 C   0  0  0  0  0  0  0  0  0  0  0  0
   13.6194   -0.0983   -0.2080 C   0  0  0  0  0  0  0  0  0  0  0  0
   14.6644   -0.4643    0.6328 C   0  0  0  0  0  0  0  0  0  0  0  0
   14.4129   -1.1683    1.8822 C   0  0  0  0  0  0  0  0  0  0  0  0
   14.8296   -2.4158    2.3265 C   0  0  0  0  0  0  0  0  0  0  0  0
   15.6816   -3.3816    1.6006 C   0  0  0  0  0  0  0  0  0  0  0  0
   14.3658   -2.7786    3.5757 N   0  0  0  0  0  0  0  0  0  0  0  0
   13.6501   -1.8004    4.0812 C   0  0  0  0  0  0  0  0  0  0  0  0
   13.4919   -0.4040    3.1144 S   0  0  0  0  0  0  0  0  0  0  0  0
   15.9592   -0.1323    0.2571 C   0  0  0  0  0  0  0  0  0  0  0  0
   16.1995    0.5655   -0.9135 C   0  0  0  0  0  0  0  0  0  0  0  0
   16.0015    0.6278   -7.2297 C   0  0  0  0  0  0  0  0  0  0  0  0
   15.3810   -0.5900   -7.8810 C   0  0  1  0  0  0  0  0  0  0  0  0
   16.2224   -1.0790   -8.9348 O   0  0  0  0  0  0  0  0  0  0  0  0
   15.2807   -1.6052   -6.7525 C   0  0  0  0  0  0  0  0  0  0  0  0
   19.4960   -6.1415   -5.3792 H   0  0  0  0  0  0  0  0  0  0  0  0
   18.6271   -7.2169   -6.4879 H   0  0  0  0  0  0  0  0  0  0  0  0
   18.5382   -7.4980   -4.7284 H   0  0  0  0  0  0  0  0  0  0  0  0
   18.5315   -4.3433   -4.7117 H   0  0  0  0  0  0  0  0  0  0  0  0
   15.7793   -3.8282   -5.5171 H   0  0  0  0  0  0  0  0  0  0  0  0
   16.4217   -3.0214   -1.3090 H   0  0  0  0  0  0  0  0  0  0  0  0
   17.0128   -1.8888   -2.5119 H   0  0  0  0  0  0  0  0  0  0  0  0
   17.8147   -3.4448   -2.2965 H   0  0  0  0  0  0  0  0  0  0  0  0
   14.7226   -1.7626   -3.6229 H   0  0  0  0  0  0  0  0  0  0  0  0
   14.0979   -2.8403   -2.3753 H   0  0  0  0  0  0  0  0  0  0  0  0
   13.8696   -3.2231   -4.0770 H   0  0  0  0  0  0  0  0  0  0  0  0
   15.0807   -4.9982   -1.9000 H   0  0  0  0  0  0  0  0  0  0  0  0
   16.4800   -5.6204   -2.7554 H   0  0  0  0  0  0  0  0  0  0  0  0
   14.9137   -5.5185   -3.5672 H   0  0  0  0  0  0  0  0  0  0  0  0
   17.9472   -0.0309   -6.4896 H   0  0  0  0  0  0  0  0  0  0  0  0
   15.1491    0.0718   -4.2940 H   0  0  0  0  0  0  0  0  0  0  0  0
   16.3711    2.3444   -2.8082 H   0  0  0  0  0  0  0  0  0  0  0  0
   14.7274    3.3284   -4.2860 H   0  0  0  0  0  0  0  0  0  0  0  0
   14.1033    3.3898   -2.6310 H   0  0  0  0  0  0  0  0  0  0  0  0
   13.4860    2.1952   -3.7847 H   0  0  0  0  0  0  0  0  0  0  0  0
   13.0132    0.8692   -1.9996 H   0  0  0  0  0  0  0  0  0  0  0  0
   12.5963   -0.3587    0.0470 H   0  0  0  0  0  0  0  0  0  0  0  0
   15.1689   -3.7568    0.7106 H   0  0  0  0  0  0  0  0  0  0  0  0
   15.9263   -4.2343    2.2398 H   0  0  0  0  0  0  0  0  0  0  0  0
   16.6262   -2.9242    1.2940 H   0  0  0  0  0  0  0  0  0  0  0  0
   13.1890   -1.8660    5.0561 H   0  0  0  0  0  0  0  0  0  0  0  0
   16.8012   -0.4033    0.8873 H   0  0  0  0  0  0  0  0  0  0  0  0
   17.2265    0.8086   -1.1724 H   0  0  0  0  0  0  0  0  0  0  0  0
   15.2137    1.2549   -6.7972 H   0  0  0  0  0  0  0  0  0  0  0  0
   16.5645    1.2448   -7.9374 H   0  0  0  0  0  0  0  0  0  0  0  0
   14.4049   -0.3602   -8.3077 H   0  0  0  0  0  0  0  0  0  0  0  0
   17.1464   -1.0143   -8.6282 H   0  0  0  0  0  0  0  0  0  0  0  0
   15.3454   -2.6305   -7.1241 H   0  0  0  0  0  0  0  0  0  0  0  0
   14.3607   -1.4693   -6.1745 H   0  0  0  0  0  0  0  0  0  0  0  0
  1 35  1  0  0  0  0
  1 36  1  0  0  0  0
  1 37  1  0  0  0  0
  1  2  1  0  0  0  0
  2  3  2  0  0  0  0
  2  4  1  0  0  0  0
  4 38  1  0  0  0  0
  5  4  1  0  0  0  0
  5 39  1  0  0  0  0
  5  6  1  0  0  0  0
  5 10  1  0  0  0  0
  6  7  1  0  0  0  0
  6  8  1  0  0  0  0
  6  9  1  0  0  0  0
  7 40  1  0  0  0  0
  7 41  1  0  0  0  0
  7 42  1  0  0  0  0
  8 43  1  0  0  0  0
  8 44  1  0  0  0  0
  8 45  1  0  0  0  0
  9 46  1  0  0  0  0
  9 47  1  0  0  0  0
  9 48  1  0  0  0  0
 10 11  2  0  0  0  0
 10 12  1  0  0  0  0
 12 34  1  0  0  0  0
 13 12  1  0  0  0  0
 13 31  1  0  0  0  0
 13 49  1  0  0  0  0
 13 14  1  0  0  0  0
 14 15  2  0  0  0  0
 14 16  1  0  0  0  0
 16 50  1  0  0  0  0
 17 16  1  0  0  0  0
 17 51  1  0  0  0  0
 17 18  1  0  0  0  0
 17 19  1  0  0  0  0
 18 52  1  0  0  0  0
 18 53  1  0  0  0  0
 18 54  1  0  0  0  0
 19 20  1  0  0  0  0
 19 30  2  0  0  0  0
 20 55  1  0  0  0  0
 20 21  2  0  0  0  0
 21 56  1  0  0  0  0
 21 22  1  0  0  0  0
 22 29  2  0  0  0  0
 22 23  1  0  0  0  0
 23 24  2  0  0  0  0
 23 28  1  0  0  0  0
 24 25  1  0  0  0  0
 24 26  1  0  0  0  0
 25 57  1  0  0  0  0
 25 58  1  0  0  0  0
 25 59  1  0  0  0  0
 26 27  2  0  0  0  0
 27 60  1  0  0  0  0
 27 28  1  0  0  0  0
 29 61  1  0  0  0  0
 29 30  1  0  0  0  0
 30 62  1  0  0  0  0
 32 31  1  0  0  0  0
 31 63  1  0  0  0  0
 31 64  1  0  0  0  0
 32 34  1  0  0  0  0
 32 65  1  0  0  0  0
 32 33  1  0  0  0  0
 33 66  1  0  0  0  0
 34 67  1  0  0  0  0
 34 68  1  0  0  0  0
M  ZZC   1 c1
M  ZZC   2 c2
M  ZZC   3 o1
M  ZZC   4 n1
M  ZZC   5 c3
M  ZZC   6 c4
M  ZZC   7 c5
M  ZZC   8 c6
M  ZZC   9 c7
M  ZZC  10 c8
M  ZZC  11 o2
M  ZZC  12 n2
M  ZZC  13 c9
M  ZZC  14 c10
M  ZZC  15 o3
M  ZZC  16 n3
M  ZZC  17 c11
M  ZZC  18 c12
M  ZZC  19 c13
M  ZZC  20 c14
M  ZZC  21 c15
M  ZZC  22 c16
M  ZZC  23 c17
M  ZZC  24 c18
M  ZZC  25 c19
M  ZZC  26 n4
M  ZZC  27 c20
M  ZZC  28 s1
M  ZZC  29 c21
M  ZZC  30 c22
M  ZZC  31 c23
M  ZZC  32 c24
M  ZZC  33 o4
M  ZZC  34 c25
M  ZZC  35 h11
M  ZZC  36 h12
M  ZZC  37 h13
M  ZZC  38 h01
M  ZZC  39 h31
M  ZZC  40 h51
M  ZZC  41 h52
M  ZZC  42 h53
M  ZZC  43 h61
M  ZZC  44 h62
M  ZZC  45 h63
M  ZZC  46 h71
M  ZZC  47 h72
M  ZZC  48 h73
M  ZZC  49 h91
M  ZZC  50 h02
M  ZZC  51 h111
M  ZZC  52 h121
M  ZZC  53 h122
M  ZZC  54 h123
M  ZZC  55 h141
M  ZZC  56 h151
M  ZZC  57 h191
M  ZZC  58 h192
M  ZZC  59 h193
M  ZZC  60 h201
M  ZZC  61 h211
M  ZZC  62 h221
M  ZZC  63 h231
M  ZZC  64 h232
M  ZZC  65 h241
M  ZZC  66 h41
M  ZZC  67 h251
M  ZZC  68 h252
M  ZZM   1 1
M  ZZI   1 111
M  ZZM   2 3
M  ZZI   2 121
M  ZZM   3 7
M  ZZI   3 81
M  ZZM   4 10
M  ZZI   4 211
M  ZZM   5 1
M  ZZI   5 113
M  ZZM   6 1
M  ZZI   6 110
M  ZZM   7 1
M  ZZI   7 111
M  ZZM   8 1
M  ZZI   8 111
M  ZZM   9 1
M  ZZI   9 111
M  ZZM  10 3
M  ZZI  10 121
M  ZZM  11 7
M  ZZI  11 81
M  ZZM  12 10
M  ZZI  12 192
M  ZZM  13 1
M  ZZI  13 113
M  ZZM  14 3
M  ZZI  14 121
M  ZZM  15 7
M  ZZI  15 81
M  ZZM  16 10
M  ZZI  16 211
M  ZZM  17 1
M  ZZI  17 113
M  ZZM  18 1
M  ZZI  18 111
M  ZZM  19 37
M  ZZI  19 124
M  ZZM  20 37
M  ZZI  20 125
M  ZZM  21 37
M  ZZI  21 125
M  ZZM  22 37
M  ZZI  22 124
M  ZZM  23 63
M  ZZI  23 104
M  ZZM  24 64
M  ZZI  24 105
M  ZZM  25 1
M  ZZI  25 111
M  ZZM  26 66
M  ZZI  26 222
M  ZZM  27 63
M  ZZI  27 104
M  ZZM  28 44
M  ZZI  28 248
M  ZZM  29 37
M  ZZI  29 125
M  ZZM  30 37
M  ZZI  30 125
M  ZZM  31 1
M  ZZI  31 112
M  ZZM  32 1
M  ZZI  32 113
M  ZZM  33 6
M  ZZI  33 60
M  ZZM  34 1
M  ZZI  34 112
M  ZZM  35 5
M  ZZI  35 1
M  ZZM  36 5
M  ZZI  36 1
M  ZZM  37 5
M  ZZI  37 1
M  ZZM  38 28
M  ZZI  38 11
M  ZZM  39 5
M  ZZI  39 1
M  ZZM  40 5
M  ZZI  40 1
M  ZZM  41 5
M  ZZI  41 1
M  ZZM  42 5
M  ZZI  42 1
M  ZZM  43 5
M  ZZI  43 1
M  ZZM  44 5
M  ZZI  44 1
M  ZZM  45 5
M  ZZI  45 1
M  ZZM  46 5
M  ZZI  46 1
M  ZZM  47 5
M  ZZI  47 1
M  ZZM  48 5
M  ZZI  48 1
M  ZZM  49 5
M  ZZI  49 1
M  ZZM  50 28
M  ZZI  50 11
M  ZZM  51 5
M  ZZI  51 1
M  ZZM  52 5
M  ZZI  52 1
M  ZZM  53 5
M  ZZI  53 1
M  ZZM  54 5
M  ZZI  54 1
M  ZZM  55 5
M  ZZI  55 1
M  ZZM  56 5
M  ZZI  56 1
M  ZZM  57 5
M  ZZI  57 1
M  ZZM  58 5
M  ZZI  58 1
M  ZZM  59 5
M  ZZI  59 1
M  ZZM  60 5
M  ZZI  60 1
M  ZZM  61 5
M  ZZI  61 1
M  ZZM  62 5
M  ZZI  62 1
M  ZZM  63 5
M  ZZI  63 1
M  ZZM  64 5
M  ZZI  64 1
M  ZZM  65 5
M  ZZI  65 1
M  ZZM  66 21
M  ZZI  66 20
M  ZZM  67 5
M  ZZI  67 1
M  ZZM  68 5
M  ZZI  68 1
M  END
> <IX>
1

> <NAME>
VHL_1S9I_3.pdb

> <Score>
-28.008563

> <Natom>
68

> <Nflex>
8

> <Hbond>
-8.045433

> <Hphob>
-6.821481

> <VwInt>
-28.595816

> <Dsolv>
17.173886

> <SolEl>
7.327583

> <Eintl>
4.993288

> <RecConf>
ND

> <projPath>
VHL_maps/

> <NAME_>
VHL_1S9I_3.pdb

$$$$
