VHL_4IM0_5.pdb
  MOLSOFT 04032206373D

 65 67  0  0  1  0  0  0  0  0999 V2000
   16.9109   -5.7883   -4.9717 C   0  0  0  0  0  0  0  0  0  0  0  0
   15.8241   -6.1497   -5.3886 O   0  0  0  0  0  0  0  0  0  0  0  0
   17.1487   -4.6057   -4.2980 N   0  0  0  0  0  0  0  0  0  0  0  0
   16.1365   -3.5715   -4.0253 C   0  0  1  0  0  0  0  0  0  0  0  0
   15.8923   -3.3881   -2.4981 C   0  0  0  0  0  0  0  0  0  0  0  0
   15.4323   -4.7333   -1.9232 C   0  0  0  0  0  0  0  0  0  0  0  0
   14.7818   -2.3757   -2.1944 C   0  0  0  0  0  0  0  0  0  0  0  0
   17.1537   -2.9238   -1.7559 C   0  0  0  0  0  0  0  0  0  0  0  0
   16.6281   -2.3265   -4.7939 C   0  0  0  0  0  0  0  0  0  0  0  0
   17.8223   -2.0555   -4.8463 O   0  0  0  0  0  0  0  0  0  0  0  0
   15.6746   -1.5540   -5.4648 N   0  0  0  0  0  0  0  0  0  0  0  0
   16.0662   -0.6401   -6.5278 C   0  0  2  0  0  0  0  0  0  0  0  0
   16.4476    0.7514   -6.0157 C   0  0  0  0  0  0  0  0  0  0  0  0
   15.9198    1.2721   -5.0423 O   0  0  0  0  0  0  0  0  0  0  0  0
   17.3881    1.3832   -6.8080 N   0  0  0  0  0  0  0  0  0  0  0  0
   17.8410    2.7372   -6.5343 C   0  0  0  0  0  0  0  0  0  0  0  0
   19.2504    3.0176   -6.9989 C   0  0  0  0  0  0  0  0  0  0  0  0
   19.6682    4.3241   -7.2437 C   0  0  0  0  0  0  0  0  0  0  0  0
   20.9774    4.6029   -7.6119 C   0  0  0  0  0  0  0  0  0  0  0  0
   21.9057    3.5778   -7.7446 C   0  0  0  0  0  0  0  0  0  0  0  0
   23.2905    3.8384   -8.1037 C   0  0  0  0  0  0  0  0  0  0  0  0
   24.3574    4.2618   -7.3242 C   0  0  0  0  0  0  0  0  0  0  0  0
   24.3262    4.5953   -5.8823 C   0  0  0  0  0  0  0  0  0  0  0  0
   25.5668    4.3437   -7.9852 N   0  0  0  0  0  0  0  0  0  0  0  0
   25.4056    4.0077   -9.2453 C   0  0  0  0  0  0  0  0  0  0  0  0
   23.8211    3.5857   -9.7180 S   0  0  0  0  0  0  0  0  0  0  0  0
   21.4899    2.2792   -7.4993 C   0  0  0  0  0  0  0  0  0  0  0  0
   20.1903    2.0032   -7.1287 C   0  0  0  0  0  0  0  0  0  0  0  0
   14.8291   -0.5686   -7.4088 C   0  0  0  0  0  0  0  0  0  0  0  0
   13.6769   -0.6911   -6.4229 C   0  0  1  0  0  0  0  0  0  0  0  0
   12.5356   -1.3072   -7.0136 O   0  0  0  0  0  0  0  0  0  0  0  0
   14.2284   -1.5825   -5.3232 C   0  0  0  0  0  0  0  0  0  0  0  0
   18.1329   -6.6489   -5.1407 C   0  0  0  0  0  0  0  0  0  0  0  0
   18.1085   -4.3925   -4.0537 H   0  0  0  0  0  0  0  0  0  0  0  0
   15.2061   -3.9176   -4.4754 H   0  0  0  0  0  0  0  0  0  0  0  0
   14.5518   -5.1160   -2.4492 H   0  0  0  0  0  0  0  0  0  0  0  0
   15.1658   -4.6379   -0.8679 H   0  0  0  0  0  0  0  0  0  0  0  0
   16.2100   -5.4948   -2.0039 H   0  0  0  0  0  0  0  0  0  0  0  0
   13.8438   -2.6527   -2.6851 H   0  0  0  0  0  0  0  0  0  0  0  0
   15.0611   -1.3647   -2.5036 H   0  0  0  0  0  0  0  0  0  0  0  0
   14.5719   -2.3234   -1.1210 H   0  0  0  0  0  0  0  0  0  0  0  0
   17.4911   -1.9419   -2.1019 H   0  0  0  0  0  0  0  0  0  0  0  0
   17.9798   -3.6197   -1.8891 H   0  0  0  0  0  0  0  0  0  0  0  0
   16.9761   -2.8451   -0.6785 H   0  0  0  0  0  0  0  0  0  0  0  0
   16.9142   -1.0615   -7.0779 H   0  0  0  0  0  0  0  0  0  0  0  0
   17.7819    0.8848   -7.6012 H   0  0  0  0  0  0  0  0  0  0  0  0
   17.1393    3.4038   -7.0475 H   0  0  0  0  0  0  0  0  0  0  0  0
   17.7683    2.9325   -5.4592 H   0  0  0  0  0  0  0  0  0  0  0  0
   18.9674    5.1475   -7.1402 H   0  0  0  0  0  0  0  0  0  0  0  0
   21.2700    5.6327   -7.7940 H   0  0  0  0  0  0  0  0  0  0  0  0
   25.2932    4.9807   -5.5463 H   0  0  0  0  0  0  0  0  0  0  0  0
   24.0980    3.7080   -5.2871 H   0  0  0  0  0  0  0  0  0  0  0  0
   23.5708    5.3580   -5.6725 H   0  0  0  0  0  0  0  0  0  0  0  0
   26.2240    3.9991   -9.9509 H   0  0  0  0  0  0  0  0  0  0  0  0
   22.1861    1.4554   -7.5956 H   0  0  0  0  0  0  0  0  0  0  0  0
   19.9200    0.9713   -6.9389 H   0  0  0  0  0  0  0  0  0  0  0  0
   14.7631    0.3476   -8.0051 H   0  0  0  0  0  0  0  0  0  0  0  0
   14.8180   -1.4128   -8.1068 H   0  0  0  0  0  0  0  0  0  0  0  0
   13.3833    0.2864   -6.0231 H   0  0  0  0  0  0  0  0  0  0  0  0
   12.1876   -0.7111   -7.7013 H   0  0  0  0  0  0  0  0  0  0  0  0
   13.8465   -2.6038   -5.3608 H   0  0  0  0  0  0  0  0  0  0  0  0
   13.9571   -1.1588   -4.3563 H   0  0  0  0  0  0  0  0  0  0  0  0
   18.0338   -7.2462   -6.0520 H   0  0  0  0  0  0  0  0  0  0  0  0
   18.2177   -7.3185   -4.2815 H   0  0  0  0  0  0  0  0  0  0  0  0
   19.0381   -6.0402   -5.2250 H   0  0  0  0  0  0  0  0  0  0  0  0
  1  3  1  0  0  0  0
  1  2  2  0  0  0  0
  1 33  1  0  0  0  0
  4  3  1  0  0  0  0
  3 34  1  0  0  0  0
  4  5  1  0  0  0  0
  4 35  1  0  0  0  0
  4  9  1  0  0  0  0
  5  6  1  0  0  0  0
  5  7  1  0  0  0  0
  5  8  1  0  0  0  0
  6 36  1  0  0  0  0
  6 37  1  0  0  0  0
  6 38  1  0  0  0  0
  7 39  1  0  0  0  0
  7 40  1  0  0  0  0
  7 41  1  0  0  0  0
  8 42  1  0  0  0  0
  8 43  1  0  0  0  0
  8 44  1  0  0  0  0
  9 10  2  0  0  0  0
  9 11  1  0  0  0  0
 11 32  1  0  0  0  0
 12 11  1  0  0  0  0
 12 29  1  0  0  0  0
 12 45  1  0  0  0  0
 12 13  1  0  0  0  0
 13 14  2  0  0  0  0
 13 15  1  0  0  0  0
 15 46  1  0  0  0  0
 15 16  1  0  0  0  0
 16 47  1  0  0  0  0
 16 48  1  0  0  0  0
 16 17  1  0  0  0  0
 17 18  1  0  0  0  0
 17 28  2  0  0  0  0
 18 49  1  0  0  0  0
 18 19  2  0  0  0  0
 19 50  1  0  0  0  0
 19 20  1  0  0  0  0
 20 27  2  0  0  0  0
 20 21  1  0  0  0  0
 21 22  2  0  0  0  0
 21 26  1  0  0  0  0
 22 23  1  0  0  0  0
 22 24  1  0  0  0  0
 23 51  1  0  0  0  0
 23 52  1  0  0  0  0
 23 53  1  0  0  0  0
 24 25  2  0  0  0  0
 25 54  1  0  0  0  0
 25 26  1  0  0  0  0
 27 55  1  0  0  0  0
 27 28  1  0  0  0  0
 28 56  1  0  0  0  0
 30 29  1  0  0  0  0
 29 57  1  0  0  0  0
 29 58  1  0  0  0  0
 30 32  1  0  0  0  0
 30 59  1  0  0  0  0
 30 31  1  0  0  0  0
 31 60  1  0  0  0  0
 32 61  1  0  0  0  0
 32 62  1  0  0  0  0
 33 63  1  0  0  0  0
 33 64  1  0  0  0  0
 33 65  1  0  0  0  0
M  ZZC   1 c1
M  ZZC   2 o1
M  ZZC   3 n1
M  ZZC   4 c2
M  ZZC   5 c3
M  ZZC   6 c4
M  ZZC   7 c5
M  ZZC   8 c6
M  ZZC   9 c7
M  ZZC  10 o2
M  ZZC  11 n2
M  ZZC  12 c8
M  ZZC  13 c9
M  ZZC  14 o3
M  ZZC  15 n3
M  ZZC  16 c10
M  ZZC  17 c11
M  ZZC  18 c12
M  ZZC  19 c13
M  ZZC  20 c14
M  ZZC  21 c15
M  ZZC  22 c16
M  ZZC  23 c17
M  ZZC  24 n4
M  ZZC  25 c18
M  ZZC  26 s1
M  ZZC  27 c19
M  ZZC  28 c20
M  ZZC  29 c21
M  ZZC  30 c22
M  ZZC  31 o4
M  ZZC  32 c23
M  ZZC  33 c24
M  ZZC  34 h11
M  ZZC  35 h21
M  ZZC  36 h41
M  ZZC  37 h42
M  ZZC  38 h43
M  ZZC  39 h51
M  ZZC  40 h52
M  ZZC  41 h53
M  ZZC  42 h61
M  ZZC  43 h62
M  ZZC  44 h63
M  ZZC  45 h81
M  ZZC  46 h31
M  ZZC  47 h101
M  ZZC  48 h102
M  ZZC  49 h121
M  ZZC  50 h131
M  ZZC  51 h171
M  ZZC  52 h172
M  ZZC  53 h173
M  ZZC  54 h181
M  ZZC  55 h191
M  ZZC  56 h201
M  ZZC  57 h211
M  ZZC  58 h212
M  ZZC  59 h221
M  ZZC  60 h01
M  ZZC  61 h231
M  ZZC  62 h232
M  ZZC  63 h241
M  ZZC  64 h242
M  ZZC  65 h243
M  ZZM   1 3
M  ZZI   1 121
M  ZZM   2 7
M  ZZI   2 81
M  ZZM   3 10
M  ZZI   3 211
M  ZZM   4 1
M  ZZI   4 113
M  ZZM   5 1
M  ZZI   5 110
M  ZZM   6 1
M  ZZI   6 111
M  ZZM   7 1
M  ZZI   7 111
M  ZZM   8 1
M  ZZI   8 111
M  ZZM   9 3
M  ZZI   9 121
M  ZZM  10 7
M  ZZI  10 81
M  ZZM  11 10
M  ZZI  11 192
M  ZZM  12 1
M  ZZI  12 113
M  ZZM  13 3
M  ZZI  13 121
M  ZZM  14 7
M  ZZI  14 81
M  ZZM  15 10
M  ZZI  15 211
M  ZZM  16 1
M  ZZI  16 112
M  ZZM  17 37
M  ZZI  17 124
M  ZZM  18 37
M  ZZI  18 125
M  ZZM  19 37
M  ZZI  19 125
M  ZZM  20 37
M  ZZI  20 124
M  ZZM  21 63
M  ZZI  21 104
M  ZZM  22 64
M  ZZI  22 105
M  ZZM  23 1
M  ZZI  23 111
M  ZZM  24 66
M  ZZI  24 222
M  ZZM  25 63
M  ZZI  25 104
M  ZZM  26 44
M  ZZI  26 248
M  ZZM  27 37
M  ZZI  27 125
M  ZZM  28 37
M  ZZI  28 125
M  ZZM  29 1
M  ZZI  29 112
M  ZZM  30 1
M  ZZI  30 113
M  ZZM  31 6
M  ZZI  31 60
M  ZZM  32 1
M  ZZI  32 112
M  ZZM  33 1
M  ZZI  33 111
M  ZZM  34 28
M  ZZI  34 11
M  ZZM  35 5
M  ZZI  35 1
M  ZZM  36 5
M  ZZI  36 1
M  ZZM  37 5
M  ZZI  37 1
M  ZZM  38 5
M  ZZI  38 1
M  ZZM  39 5
M  ZZI  39 1
M  ZZM  40 5
M  ZZI  40 1
M  ZZM  41 5
M  ZZI  41 1
M  ZZM  42 5
M  ZZI  42 1
M  ZZM  43 5
M  ZZI  43 1
M  ZZM  44 5
M  ZZI  44 1
M  ZZM  45 5
M  ZZI  45 1
M  ZZM  46 28
M  ZZI  46 11
M  ZZM  47 5
M  ZZI  47 1
M  ZZM  48 5
M  ZZI  48 1
M  ZZM  49 5
M  ZZI  49 1
M  ZZM  50 5
M  ZZI  50 1
M  ZZM  51 5
M  ZZI  51 1
M  ZZM  52 5
M  ZZI  52 1
M  ZZM  53 5
M  ZZI  53 1
M  ZZM  54 5
M  ZZI  54 1
M  ZZM  55 5
M  ZZI  55 1
M  ZZM  56 5
M  ZZI  56 1
M  ZZM  57 5
M  ZZI  57 1
M  ZZM  58 5
M  ZZI  58 1
M  ZZM  59 5
M  ZZI  59 1
M  ZZM  60 21
M  ZZI  60 20
M  ZZM  61 5
M  ZZI  61 1
M  ZZM  62 5
M  ZZI  62 1
M  ZZM  63 5
M  ZZI  63 1
M  ZZM  64 5
M  ZZI  64 1
M  ZZM  65 5
M  ZZI  65 1
M  END
> <IX>
1

> <NAME>
VHL_4IM0_5.pdb

> <Score>
-12.053362

> <Natom>
65

> <Nflex>
8

> <Hbond>
-4.95392

> <Hphob>
-6.59301

> <VwInt>
-28.283225

> <Dsolv>
16.945055

> <SolEl>
17.056849

> <Eintl>
7.357143

> <RecConf>
ND

> <projPath>
VHL_maps/

> <NAME_>
VHL_4IM0_5.pdb

$$$$
