VHL_1ERR_13.pdb
  MOLSOFT 04032206373D

 68 70  0  0  1  0  0  0  0  0999 V2000
   16.0924   -6.2922   -5.6258 O   0  0  0  0  0  0  0  0  0  0  0  0
   17.1871   -5.8802   -5.2772 C   0  0  0  0  0  0  0  0  0  0  0  0
   17.4273   -4.6303   -4.7347 N   0  0  0  0  0  0  0  0  0  0  0  0
   16.3989   -3.6052   -4.5187 C   0  0  1  0  0  0  0  0  0  0  0  0
   15.8098   -3.6303   -3.0707 C   0  0  0  0  0  0  0  0  0  0  0  0
   16.8065   -3.1075   -2.0251 C   0  0  0  0  0  0  0  0  0  0  0  0
   15.4083   -5.0539   -2.6586 C   0  0  0  0  0  0  0  0  0  0  0  0
   14.5363   -2.7762   -3.0076 C   0  0  0  0  0  0  0  0  0  0  0  0
   17.0314   -2.2473   -4.9012 C   0  0  0  0  0  0  0  0  0  0  0  0
   18.1326   -1.9301   -4.4767 O   0  0  0  0  0  0  0  0  0  0  0  0
   16.3085   -1.3653   -5.7124 N   0  0  0  0  0  0  0  0  0  0  0  0
   16.8271   -0.0275   -6.0167 C   0  0  2  0  0  0  0  0  0  0  0  0
   16.7838    0.9506   -4.8390 C   0  0  0  0  0  0  0  0  0  0  0  0
   17.5770    1.8773   -4.7568 O   0  0  0  0  0  0  0  0  0  0  0  0
   15.6854    0.8115   -4.0093 N   0  0  0  0  0  0  0  0  0  0  0  0
   15.3809    1.7368   -2.9283 C   0  0  1  0  0  0  0  0  0  0  0  0
   14.2950    2.7146   -3.3788 C   0  0  0  0  0  0  0  0  0  0  0  0
   15.0553    0.9746   -1.6566 C   0  0  0  0  0  0  0  0  0  0  0  0
   16.1034    0.4897   -0.8780 C   0  0  0  0  0  0  0  0  0  0  0  0
   15.8696   -0.2279    0.2820 C   0  0  0  0  0  0  0  0  0  0  0  0
   14.5726   -0.4908    0.7018 C   0  0  0  0  0  0  0  0  0  0  0  0
   14.3191   -1.2437    1.9201 C   0  0  0  0  0  0  0  0  0  0  0  0
   13.7568   -0.8508    3.1273 C   0  0  0  0  0  0  0  0  0  0  0  0
   13.3173    0.5138    3.5045 C   0  0  0  0  0  0  0  0  0  0  0  0
   13.6332   -1.8554    4.0674 N   0  0  0  0  0  0  0  0  0  0  0  0
   14.1168   -2.9764    3.5821 C   0  0  0  0  0  0  0  0  0  0  0  0
   14.7484   -2.9054    1.9977 S   0  0  0  0  0  0  0  0  0  0  0  0
   13.5194   -0.0169   -0.0688 C   0  0  0  0  0  0  0  0  0  0  0  0
   13.7543    0.7032   -1.2290 C   0  0  0  0  0  0  0  0  0  0  0  0
   15.9227    0.5118   -7.1230 C   0  0  0  0  0  0  0  0  0  0  0  0
   15.3298   -0.7241   -7.7658 C   0  0  1  0  0  0  0  0  0  0  0  0
   16.1733   -1.1855   -8.8310 O   0  0  0  0  0  0  0  0  0  0  0  0
   15.2552   -1.7406   -6.6339 C   0  0  0  0  0  0  0  0  0  0  0  0
   18.4159   -6.7414   -5.3929 C   0  0  0  0  0  0  0  0  0  0  0  0
   18.3745   -4.4080   -4.4544 H   0  0  0  0  0  0  0  0  0  0  0  0
   15.5935   -3.8265   -5.2071 H   0  0  0  0  0  0  0  0  0  0  0  0
   17.7532   -3.6499   -2.0648 H   0  0  0  0  0  0  0  0  0  0  0  0
   16.4134   -3.2170   -1.0098 H   0  0  0  0  0  0  0  0  0  0  0  0
   17.0304   -2.0474   -2.1662 H   0  0  0  0  0  0  0  0  0  0  0  0
   14.6867   -5.4772   -3.3590 H   0  0  0  0  0  0  0  0  0  0  0  0
   14.9389   -5.0677   -1.6704 H   0  0  0  0  0  0  0  0  0  0  0  0
   16.2672   -5.7282   -2.6092 H   0  0  0  0  0  0  0  0  0  0  0  0
   13.7845   -3.1229   -3.7237 H   0  0  0  0  0  0  0  0  0  0  0  0
   14.7400   -1.7303   -3.2281 H   0  0  0  0  0  0  0  0  0  0  0  0
   14.0798   -2.8074   -2.0132 H   0  0  0  0  0  0  0  0  0  0  0  0
   17.8653   -0.1284   -6.3510 H   0  0  0  0  0  0  0  0  0  0  0  0
   15.0428    0.0491   -4.1849 H   0  0  0  0  0  0  0  0  0  0  0  0
   16.2749    2.3390   -2.7308 H   0  0  0  0  0  0  0  0  0  0  0  0
   14.6388    3.3086   -4.2316 H   0  0  0  0  0  0  0  0  0  0  0  0
   14.0189    3.4073   -2.5770 H   0  0  0  0  0  0  0  0  0  0  0  0
   13.3893    2.1947   -3.7058 H   0  0  0  0  0  0  0  0  0  0  0  0
   17.1321    0.6667   -1.1808 H   0  0  0  0  0  0  0  0  0  0  0  0
   16.7181   -0.5831    0.8596 H   0  0  0  0  0  0  0  0  0  0  0  0
   14.1815    1.1326    3.7616 H   0  0  0  0  0  0  0  0  0  0  0  0
   12.6540    0.4855    4.3740 H   0  0  0  0  0  0  0  0  0  0  0  0
   12.7777    1.0064    2.6906 H   0  0  0  0  0  0  0  0  0  0  0  0
   14.1217   -3.8958    4.1497 H   0  0  0  0  0  0  0  0  0  0  0  0
   12.4958   -0.2176    0.2322 H   0  0  0  0  0  0  0  0  0  0  0  0
   12.8978    1.0477   -1.7980 H   0  0  0  0  0  0  0  0  0  0  0  0
   15.1175    1.1303   -6.7104 H   0  0  0  0  0  0  0  0  0  0  0  0
   16.4841    1.1306   -7.8312 H   0  0  0  0  0  0  0  0  0  0  0  0
   14.3438   -0.5232   -8.1847 H   0  0  0  0  0  0  0  0  0  0  0  0
   17.0986   -1.0991   -8.5350 H   0  0  0  0  0  0  0  0  0  0  0  0
   15.4058   -2.7605   -6.9976 H   0  0  0  0  0  0  0  0  0  0  0  0
   14.3078   -1.6685   -6.0893 H   0  0  0  0  0  0  0  0  0  0  0  0
   18.4252   -7.2252   -6.3735 H   0  0  0  0  0  0  0  0  0  0  0  0
   18.3871   -7.5067   -4.6132 H   0  0  0  0  0  0  0  0  0  0  0  0
   19.3330   -6.1544   -5.2913 H   0  0  0  0  0  0  0  0  0  0  0  0
  1  2  2  0  0  0  0
  2  3  1  0  0  0  0
  2 34  1  0  0  0  0
  4  3  1  0  0  0  0
  3 35  1  0  0  0  0
  4  5  1  0  0  0  0
  4 36  1  0  0  0  0
  4  9  1  0  0  0  0
  5  6  1  0  0  0  0
  5  7  1  0  0  0  0
  5  8  1  0  0  0  0
  6 37  1  0  0  0  0
  6 38  1  0  0  0  0
  6 39  1  0  0  0  0
  7 40  1  0  0  0  0
  7 41  1  0  0  0  0
  7 42  1  0  0  0  0
  8 43  1  0  0  0  0
  8 44  1  0  0  0  0
  8 45  1  0  0  0  0
  9 10  2  0  0  0  0
  9 11  1  0  0  0  0
 11 33  1  0  0  0  0
 12 11  1  0  0  0  0
 12 30  1  0  0  0  0
 12 46  1  0  0  0  0
 12 13  1  0  0  0  0
 13 14  2  0  0  0  0
 13 15  1  0  0  0  0
 15 47  1  0  0  0  0
 16 15  1  0  0  0  0
 16 48  1  0  0  0  0
 16 17  1  0  0  0  0
 16 18  1  0  0  0  0
 17 49  1  0  0  0  0
 17 50  1  0  0  0  0
 17 51  1  0  0  0  0
 18 19  1  0  0  0  0
 18 29  2  0  0  0  0
 19 52  1  0  0  0  0
 19 20  2  0  0  0  0
 20 53  1  0  0  0  0
 20 21  1  0  0  0  0
 21 28  2  0  0  0  0
 21 22  1  0  0  0  0
 22 23  2  0  0  0  0
 22 27  1  0  0  0  0
 23 24  1  0  0  0  0
 23 25  1  0  0  0  0
 24 54  1  0  0  0  0
 24 55  1  0  0  0  0
 24 56  1  0  0  0  0
 25 26  2  0  0  0  0
 26 57  1  0  0  0  0
 26 27  1  0  0  0  0
 28 58  1  0  0  0  0
 28 29  1  0  0  0  0
 29 59  1  0  0  0  0
 31 30  1  0  0  0  0
 30 60  1  0  0  0  0
 30 61  1  0  0  0  0
 31 33  1  0  0  0  0
 31 62  1  0  0  0  0
 31 32  1  0  0  0  0
 32 63  1  0  0  0  0
 33 64  1  0  0  0  0
 33 65  1  0  0  0  0
 34 66  1  0  0  0  0
 34 67  1  0  0  0  0
 34 68  1  0  0  0  0
M  ZZC   1 o1
M  ZZC   2 c1
M  ZZC   3 n1
M  ZZC   4 c2
M  ZZC   5 c3
M  ZZC   6 c4
M  ZZC   7 c5
M  ZZC   8 c6
M  ZZC   9 c7
M  ZZC  10 o2
M  ZZC  11 n2
M  ZZC  12 c8
M  ZZC  13 c9
M  ZZC  14 o3
M  ZZC  15 n3
M  ZZC  16 c10
M  ZZC  17 c11
M  ZZC  18 c12
M  ZZC  19 c13
M  ZZC  20 c14
M  ZZC  21 c15
M  ZZC  22 c16
M  ZZC  23 c17
M  ZZC  24 c18
M  ZZC  25 n4
M  ZZC  26 c19
M  ZZC  27 s1
M  ZZC  28 c20
M  ZZC  29 c21
M  ZZC  30 c22
M  ZZC  31 c23
M  ZZC  32 o4
M  ZZC  33 c24
M  ZZC  34 c25
M  ZZC  35 h11
M  ZZC  36 h21
M  ZZC  37 h41
M  ZZC  38 h42
M  ZZC  39 h43
M  ZZC  40 h51
M  ZZC  41 h52
M  ZZC  42 h53
M  ZZC  43 h61
M  ZZC  44 h62
M  ZZC  45 h63
M  ZZC  46 h81
M  ZZC  47 h31
M  ZZC  48 h101
M  ZZC  49 h111
M  ZZC  50 h112
M  ZZC  51 h113
M  ZZC  52 h131
M  ZZC  53 h141
M  ZZC  54 h181
M  ZZC  55 h182
M  ZZC  56 h183
M  ZZC  57 h191
M  ZZC  58 h201
M  ZZC  59 h211
M  ZZC  60 h221
M  ZZC  61 h222
M  ZZC  62 h231
M  ZZC  63 h01
M  ZZC  64 h241
M  ZZC  65 h242
M  ZZC  66 h251
M  ZZC  67 h252
M  ZZC  68 h253
M  ZZM   1 7
M  ZZI   1 81
M  ZZM   2 3
M  ZZI   2 121
M  ZZM   3 10
M  ZZI   3 211
M  ZZM   4 1
M  ZZI   4 113
M  ZZM   5 1
M  ZZI   5 110
M  ZZM   6 1
M  ZZI   6 111
M  ZZM   7 1
M  ZZI   7 111
M  ZZM   8 1
M  ZZI   8 111
M  ZZM   9 3
M  ZZI   9 121
M  ZZM  10 7
M  ZZI  10 81
M  ZZM  11 10
M  ZZI  11 192
M  ZZM  12 1
M  ZZI  12 113
M  ZZM  13 3
M  ZZI  13 121
M  ZZM  14 7
M  ZZI  14 81
M  ZZM  15 10
M  ZZI  15 211
M  ZZM  16 1
M  ZZI  16 113
M  ZZM  17 1
M  ZZI  17 111
M  ZZM  18 37
M  ZZI  18 124
M  ZZM  19 37
M  ZZI  19 125
M  ZZM  20 37
M  ZZI  20 125
M  ZZM  21 37
M  ZZI  21 124
M  ZZM  22 63
M  ZZI  22 104
M  ZZM  23 64
M  ZZI  23 105
M  ZZM  24 1
M  ZZI  24 111
M  ZZM  25 66
M  ZZI  25 222
M  ZZM  26 63
M  ZZI  26 104
M  ZZM  27 44
M  ZZI  27 248
M  ZZM  28 37
M  ZZI  28 125
M  ZZM  29 37
M  ZZI  29 125
M  ZZM  30 1
M  ZZI  30 112
M  ZZM  31 1
M  ZZI  31 113
M  ZZM  32 6
M  ZZI  32 60
M  ZZM  33 1
M  ZZI  33 112
M  ZZM  34 1
M  ZZI  34 111
M  ZZM  35 28
M  ZZI  35 11
M  ZZM  36 5
M  ZZI  36 1
M  ZZM  37 5
M  ZZI  37 1
M  ZZM  38 5
M  ZZI  38 1
M  ZZM  39 5
M  ZZI  39 1
M  ZZM  40 5
M  ZZI  40 1
M  ZZM  41 5
M  ZZI  41 1
M  ZZM  42 5
M  ZZI  42 1
M  ZZM  43 5
M  ZZI  43 1
M  ZZM  44 5
M  ZZI  44 1
M  ZZM  45 5
M  ZZI  45 1
M  ZZM  46 5
M  ZZI  46 1
M  ZZM  47 28
M  ZZI  47 11
M  ZZM  48 5
M  ZZI  48 1
M  ZZM  49 5
M  ZZI  49 1
M  ZZM  50 5
M  ZZI  50 1
M  ZZM  51 5
M  ZZI  51 1
M  ZZM  52 5
M  ZZI  52 1
M  ZZM  53 5
M  ZZI  53 1
M  ZZM  54 5
M  ZZI  54 1
M  ZZM  55 5
M  ZZI  55 1
M  ZZM  56 5
M  ZZI  56 1
M  ZZM  57 5
M  ZZI  57 1
M  ZZM  58 5
M  ZZI  58 1
M  ZZM  59 5
M  ZZI  59 1
M  ZZM  60 5
M  ZZI  60 1
M  ZZM  61 5
M  ZZI  61 1
M  ZZM  62 5
M  ZZI  62 1
M  ZZM  63 21
M  ZZI  63 20
M  ZZM  64 5
M  ZZI  64 1
M  ZZM  65 5
M  ZZI  65 1
M  ZZM  66 5
M  ZZI  66 1
M  ZZM  67 5
M  ZZI  67 1
M  ZZM  68 5
M  ZZI  68 1
M  END
> <IX>
1

> <NAME>
VHL_1ERR_13.pdb

> <Score>
-26.639554

> <Natom>
68

> <Nflex>
8

> <Hbond>
-7.504932

> <Hphob>
-6.798775

> <VwInt>
-28.540334

> <Dsolv>
17.361641

> <SolEl>
7.597094

> <Eintl>
4.346875

> <RecConf>
ND

> <projPath>
VHL_maps/

> <NAME_>
VHL_1ERR_13.pdb

$$$$
