VHL_1R5K_1.pdb
  MOLSOFT 04032206373D

 68 70  0  0  1  0  0  0  0  0999 V2000
   15.8064   -6.2184   -5.4614 O   0  0  0  0  0  0  0  0  0  0  0  0
   16.8892   -5.8971   -5.0033 C   0  0  0  0  0  0  0  0  0  0  0  0
   17.1459   -4.7244   -4.3203 N   0  0  0  0  0  0  0  0  0  0  0  0
   16.1660   -3.6523   -4.0796 C   0  0  1  0  0  0  0  0  0  0  0  0
   15.8557   -3.4819   -2.5631 C   0  0  0  0  0  0  0  0  0  0  0  0
   15.3570   -4.8273   -2.0213 C   0  0  0  0  0  0  0  0  0  0  0  0
   17.0861   -3.0360   -1.7602 C   0  0  0  0  0  0  0  0  0  0  0  0
   14.7426   -2.4603   -2.3038 C   0  0  0  0  0  0  0  0  0  0  0  0
   16.7617   -2.4248   -4.7972 C   0  0  0  0  0  0  0  0  0  0  0  0
   17.9694   -2.2199   -4.7852 O   0  0  0  0  0  0  0  0  0  0  0  0
   15.8983   -1.5725   -5.4902 N   0  0  0  0  0  0  0  0  0  0  0  0
   16.4294   -0.6123   -6.4453 C   0  0  2  0  0  0  0  0  0  0  0  0
   16.9262    0.6667   -5.7680 C   0  0  0  0  0  0  0  0  0  0  0  0
   16.5389    1.0246   -4.6640 O   0  0  0  0  0  0  0  0  0  0  0  0
   17.8203    1.3827   -6.5476 N   0  0  0  0  0  0  0  0  0  0  0  0
   18.4288    2.6325   -6.1112 C   0  0  1  0  0  0  0  0  0  0  0  0
   19.8073    2.7963   -6.7566 C   0  0  0  0  0  0  0  0  0  0  0  0
   17.5020    3.8144   -6.3520 C   0  0  0  0  0  0  0  0  0  0  0  0
   17.5492    4.5941   -7.5083 C   0  0  0  0  0  0  0  0  0  0  0  0
   16.6702    5.6462   -7.7013 C   0  0  0  0  0  0  0  0  0  0  0  0
   15.7129    5.9597   -6.7449 C   0  0  0  0  0  0  0  0  0  0  0  0
   14.7812    7.0545   -6.9660 C   0  0  0  0  0  0  0  0  0  0  0  0
   13.8301    7.2295   -7.9596 C   0  0  0  0  0  0  0  0  0  0  0  0
   13.5060    6.2766   -9.0427 C   0  0  0  0  0  0  0  0  0  0  0  0
   13.1343    8.4197   -7.9008 N   0  0  0  0  0  0  0  0  0  0  0  0
   13.5488    9.1199   -6.8687 C   0  0  0  0  0  0  0  0  0  0  0  0
   14.7673    8.4097   -5.9085 S   0  0  0  0  0  0  0  0  0  0  0  0
   15.6596    5.1943   -5.5880 C   0  0  0  0  0  0  0  0  0  0  0  0
   16.5406    4.1445   -5.3980 C   0  0  0  0  0  0  0  0  0  0  0  0
   15.2709   -0.3522   -7.3954 C   0  0  0  0  0  0  0  0  0  0  0  0
   14.0393   -0.5037   -6.5188 C   0  0  1  0  0  0  0  0  0  0  0  0
   12.9366   -0.9827   -7.2865 O   0  0  0  0  0  0  0  0  0  0  0  0
   14.4478   -1.5251   -5.4668 C   0  0  0  0  0  0  0  0  0  0  0  0
   18.0848   -6.8005   -5.1223 C   0  0  0  0  0  0  0  0  0  0  0  0
   18.1058   -4.5433   -4.0498 H   0  0  0  0  0  0  0  0  0  0  0  0
   15.2431   -3.9416   -4.5800 H   0  0  0  0  0  0  0  0  0  0  0  0
   14.4791   -5.1812   -2.5713 H   0  0  0  0  0  0  0  0  0  0  0  0
   15.0719   -4.7466   -0.9701 H   0  0  0  0  0  0  0  0  0  0  0  0
   16.1198   -5.6046   -2.0973 H   0  0  0  0  0  0  0  0  0  0  0  0
   17.4415   -2.0496   -2.0737 H   0  0  0  0  0  0  0  0  0  0  0  0
   17.9147   -3.7326   -1.8719 H   0  0  0  0  0  0  0  0  0  0  0  0
   16.8637   -2.9746   -0.6900 H   0  0  0  0  0  0  0  0  0  0  0  0
   13.8331   -2.7121   -2.8581 H   0  0  0  0  0  0  0  0  0  0  0  0
   15.0537   -1.4471   -2.5723 H   0  0  0  0  0  0  0  0  0  0  0  0
   14.4685   -2.4288   -1.2441 H   0  0  0  0  0  0  0  0  0  0  0  0
   17.2715   -1.0592   -6.9783 H   0  0  0  0  0  0  0  0  0  0  0  0
   18.1133    0.9904   -7.4374 H   0  0  0  0  0  0  0  0  0  0  0  0
   18.5951    2.5509   -5.0306 H   0  0  0  0  0  0  0  0  0  0  0  0
   20.2923    3.7135   -6.4166 H   0  0  0  0  0  0  0  0  0  0  0  0
   19.7356    2.8392   -7.8479 H   0  0  0  0  0  0  0  0  0  0  0  0
   20.4895    1.9838   -6.4949 H   0  0  0  0  0  0  0  0  0  0  0  0
   18.2808    4.3972   -8.2832 H   0  0  0  0  0  0  0  0  0  0  0  0
   16.7437    6.2327   -8.6134 H   0  0  0  0  0  0  0  0  0  0  0  0
   14.2930    6.2719   -9.8005 H   0  0  0  0  0  0  0  0  0  0  0  0
   12.5679    6.5471   -9.5291 H   0  0  0  0  0  0  0  0  0  0  0  0
   13.3932    5.2600   -8.6542 H   0  0  0  0  0  0  0  0  0  0  0  0
   13.1485   10.0939   -6.6298 H   0  0  0  0  0  0  0  0  0  0  0  0
   14.9169    5.4023   -4.8228 H   0  0  0  0  0  0  0  0  0  0  0  0
   16.4648    3.5702   -4.4794 H   0  0  0  0  0  0  0  0  0  0  0  0
   15.3100    0.6294   -7.8794 H   0  0  0  0  0  0  0  0  0  0  0  0
   15.2577   -1.1026   -8.1945 H   0  0  0  0  0  0  0  0  0  0  0  0
   13.7717    0.4567   -6.0625 H   0  0  0  0  0  0  0  0  0  0  0  0
   12.1164   -0.7097   -6.8385 H   0  0  0  0  0  0  0  0  0  0  0  0
   14.0259   -2.5164   -5.6303 H   0  0  0  0  0  0  0  0  0  0  0  0
   14.1132   -1.1808   -4.4890 H   0  0  0  0  0  0  0  0  0  0  0  0
   17.9763   -7.4318   -6.0092 H   0  0  0  0  0  0  0  0  0  0  0  0
   18.1399   -7.4352   -4.2347 H   0  0  0  0  0  0  0  0  0  0  0  0
   19.0079   -6.2213   -5.2220 H   0  0  0  0  0  0  0  0  0  0  0  0
  1  2  2  0  0  0  0
  2  3  1  0  0  0  0
  2 34  1  0  0  0  0
  4  3  1  0  0  0  0
  3 35  1  0  0  0  0
  4  5  1  0  0  0  0
  4 36  1  0  0  0  0
  4  9  1  0  0  0  0
  5  6  1  0  0  0  0
  5  7  1  0  0  0  0
  5  8  1  0  0  0  0
  6 37  1  0  0  0  0
  6 38  1  0  0  0  0
  6 39  1  0  0  0  0
  7 40  1  0  0  0  0
  7 41  1  0  0  0  0
  7 42  1  0  0  0  0
  8 43  1  0  0  0  0
  8 44  1  0  0  0  0
  8 45  1  0  0  0  0
  9 10  2  0  0  0  0
  9 11  1  0  0  0  0
 11 33  1  0  0  0  0
 12 11  1  0  0  0  0
 12 30  1  0  0  0  0
 12 46  1  0  0  0  0
 12 13  1  0  0  0  0
 13 14  2  0  0  0  0
 13 15  1  0  0  0  0
 15 47  1  0  0  0  0
 16 15  1  0  0  0  0
 16 48  1  0  0  0  0
 16 17  1  0  0  0  0
 16 18  1  0  0  0  0
 17 49  1  0  0  0  0
 17 50  1  0  0  0  0
 17 51  1  0  0  0  0
 18 19  1  0  0  0  0
 18 29  2  0  0  0  0
 19 52  1  0  0  0  0
 19 20  2  0  0  0  0
 20 53  1  0  0  0  0
 20 21  1  0  0  0  0
 21 28  2  0  0  0  0
 21 22  1  0  0  0  0
 22 23  2  0  0  0  0
 22 27  1  0  0  0  0
 23 24  1  0  0  0  0
 23 25  1  0  0  0  0
 24 54  1  0  0  0  0
 24 55  1  0  0  0  0
 24 56  1  0  0  0  0
 25 26  2  0  0  0  0
 26 57  1  0  0  0  0
 26 27  1  0  0  0  0
 28 58  1  0  0  0  0
 28 29  1  0  0  0  0
 29 59  1  0  0  0  0
 31 30  1  0  0  0  0
 30 60  1  0  0  0  0
 30 61  1  0  0  0  0
 31 33  1  0  0  0  0
 31 62  1  0  0  0  0
 31 32  1  0  0  0  0
 32 63  1  0  0  0  0
 33 64  1  0  0  0  0
 33 65  1  0  0  0  0
 34 66  1  0  0  0  0
 34 67  1  0  0  0  0
 34 68  1  0  0  0  0
M  ZZC   1 o1
M  ZZC   2 c1
M  ZZC   3 n1
M  ZZC   4 c2
M  ZZC   5 c3
M  ZZC   6 c4
M  ZZC   7 c5
M  ZZC   8 c6
M  ZZC   9 c7
M  ZZC  10 o2
M  ZZC  11 n2
M  ZZC  12 c8
M  ZZC  13 c9
M  ZZC  14 o3
M  ZZC  15 n3
M  ZZC  16 c10
M  ZZC  17 c11
M  ZZC  18 c12
M  ZZC  19 c13
M  ZZC  20 c14
M  ZZC  21 c15
M  ZZC  22 c16
M  ZZC  23 c17
M  ZZC  24 c18
M  ZZC  25 n4
M  ZZC  26 c19
M  ZZC  27 s1
M  ZZC  28 c20
M  ZZC  29 c21
M  ZZC  30 c22
M  ZZC  31 c23
M  ZZC  32 o4
M  ZZC  33 c24
M  ZZC  34 c25
M  ZZC  35 h11
M  ZZC  36 h21
M  ZZC  37 h41
M  ZZC  38 h42
M  ZZC  39 h43
M  ZZC  40 h51
M  ZZC  41 h52
M  ZZC  42 h53
M  ZZC  43 h61
M  ZZC  44 h62
M  ZZC  45 h63
M  ZZC  46 h81
M  ZZC  47 h31
M  ZZC  48 h101
M  ZZC  49 h111
M  ZZC  50 h112
M  ZZC  51 h113
M  ZZC  52 h131
M  ZZC  53 h141
M  ZZC  54 h181
M  ZZC  55 h182
M  ZZC  56 h183
M  ZZC  57 h191
M  ZZC  58 h201
M  ZZC  59 h211
M  ZZC  60 h221
M  ZZC  61 h222
M  ZZC  62 h231
M  ZZC  63 h01
M  ZZC  64 h241
M  ZZC  65 h242
M  ZZC  66 h251
M  ZZC  67 h252
M  ZZC  68 h253
M  ZZM   1 7
M  ZZI   1 81
M  ZZM   2 3
M  ZZI   2 121
M  ZZM   3 10
M  ZZI   3 211
M  ZZM   4 1
M  ZZI   4 113
M  ZZM   5 1
M  ZZI   5 110
M  ZZM   6 1
M  ZZI   6 111
M  ZZM   7 1
M  ZZI   7 111
M  ZZM   8 1
M  ZZI   8 111
M  ZZM   9 3
M  ZZI   9 121
M  ZZM  10 7
M  ZZI  10 81
M  ZZM  11 10
M  ZZI  11 192
M  ZZM  12 1
M  ZZI  12 113
M  ZZM  13 3
M  ZZI  13 121
M  ZZM  14 7
M  ZZI  14 81
M  ZZM  15 10
M  ZZI  15 211
M  ZZM  16 1
M  ZZI  16 113
M  ZZM  17 1
M  ZZI  17 111
M  ZZM  18 37
M  ZZI  18 124
M  ZZM  19 37
M  ZZI  19 125
M  ZZM  20 37
M  ZZI  20 125
M  ZZM  21 37
M  ZZI  21 124
M  ZZM  22 63
M  ZZI  22 104
M  ZZM  23 64
M  ZZI  23 105
M  ZZM  24 1
M  ZZI  24 111
M  ZZM  25 66
M  ZZI  25 222
M  ZZM  26 63
M  ZZI  26 104
M  ZZM  27 44
M  ZZI  27 248
M  ZZM  28 37
M  ZZI  28 125
M  ZZM  29 37
M  ZZI  29 125
M  ZZM  30 1
M  ZZI  30 112
M  ZZM  31 1
M  ZZI  31 113
M  ZZM  32 6
M  ZZI  32 60
M  ZZM  33 1
M  ZZI  33 112
M  ZZM  34 1
M  ZZI  34 111
M  ZZM  35 28
M  ZZI  35 11
M  ZZM  36 5
M  ZZI  36 1
M  ZZM  37 5
M  ZZI  37 1
M  ZZM  38 5
M  ZZI  38 1
M  ZZM  39 5
M  ZZI  39 1
M  ZZM  40 5
M  ZZI  40 1
M  ZZM  41 5
M  ZZI  41 1
M  ZZM  42 5
M  ZZI  42 1
M  ZZM  43 5
M  ZZI  43 1
M  ZZM  44 5
M  ZZI  44 1
M  ZZM  45 5
M  ZZI  45 1
M  ZZM  46 5
M  ZZI  46 1
M  ZZM  47 28
M  ZZI  47 11
M  ZZM  48 5
M  ZZI  48 1
M  ZZM  49 5
M  ZZI  49 1
M  ZZM  50 5
M  ZZI  50 1
M  ZZM  51 5
M  ZZI  51 1
M  ZZM  52 5
M  ZZI  52 1
M  ZZM  53 5
M  ZZI  53 1
M  ZZM  54 5
M  ZZI  54 1
M  ZZM  55 5
M  ZZI  55 1
M  ZZM  56 5
M  ZZI  56 1
M  ZZM  57 5
M  ZZI  57 1
M  ZZM  58 5
M  ZZI  58 1
M  ZZM  59 5
M  ZZI  59 1
M  ZZM  60 5
M  ZZI  60 1
M  ZZM  61 5
M  ZZI  61 1
M  ZZM  62 5
M  ZZI  62 1
M  ZZM  63 21
M  ZZI  63 20
M  ZZM  64 5
M  ZZI  64 1
M  ZZM  65 5
M  ZZI  65 1
M  ZZM  66 5
M  ZZI  66 1
M  ZZM  67 5
M  ZZI  67 1
M  ZZM  68 5
M  ZZI  68 1
M  END
> <IX>
1

> <NAME>
VHL_1R5K_1.pdb

> <Score>
-2.931758

> <Natom>
68

> <Nflex>
8

> <Hbond>
-5.015968

> <Hphob>
-6.778689

> <VwInt>
-28.241041

> <Dsolv>
22.973403

> <SolEl>
23.050014

> <Eintl>
8.830568

> <RecConf>
ND

> <projPath>
VHL_maps/

> <NAME_>
VHL_1R5K_1.pdb

$$$$
