VHL_4QNQ_24.pdb
  MOLSOFT 04032206403D

 68 70  0  0  1  0  0  0  0  0999 V2000
   18.1301   -6.5915   -5.1392 C   0  0  0  0  0  0  0  0  0  0  0  0
   16.9068   -5.7331   -4.9675 C   0  0  0  0  0  0  0  0  0  0  0  0
   15.8176   -6.1092   -5.3648 O   0  0  0  0  0  0  0  0  0  0  0  0
   17.1480   -4.5443   -4.3071 N   0  0  0  0  0  0  0  0  0  0  0  0
   16.1318   -3.5159   -4.0299 C   0  0  1  0  0  0  0  0  0  0  0  0
   15.9052   -3.3256   -2.5000 C   0  0  0  0  0  0  0  0  0  0  0  0
   15.4532   -4.6673   -1.9092 C   0  0  0  0  0  0  0  0  0  0  0  0
   17.1755   -2.8580   -1.7752 C   0  0  0  0  0  0  0  0  0  0  0  0
   14.7978   -2.3118   -2.1888 C   0  0  0  0  0  0  0  0  0  0  0  0
   16.6060   -2.2699   -4.8103 C   0  0  0  0  0  0  0  0  0  0  0  0
   17.7976   -1.9892   -4.8720 O   0  0  0  0  0  0  0  0  0  0  0  0
   15.6399   -1.5062   -5.4755 N   0  0  0  0  0  0  0  0  0  0  0  0
   16.0147   -0.5735   -6.5299 C   0  0  2  0  0  0  0  0  0  0  0  0
   16.3816    0.8054   -5.9717 C   0  0  0  0  0  0  0  0  0  0  0  0
   15.6592    1.4175   -5.1963 O   0  0  0  0  0  0  0  0  0  0  0  0
   17.5933    1.2861   -6.4364 N   0  0  0  0  0  0  0  0  0  0  0  0
   18.1655    2.5503   -5.9806 C   0  0  1  0  0  0  0  0  0  0  0  0
   18.5405    2.4851   -4.4959 C   0  0  0  0  0  0  0  0  0  0  0  0
   19.3921    2.9628   -6.7743 C   0  0  0  0  0  0  0  0  0  0  0  0
   20.3707    2.0447   -7.1323 C   0  0  0  0  0  0  0  0  0  0  0  0
   21.5417    2.4431   -7.7422 C   0  0  0  0  0  0  0  0  0  0  0  0
   21.7882    3.7751   -8.0495 C   0  0  0  0  0  0  0  0  0  0  0  0
   23.0363    4.1712   -8.7049 C   0  0  0  0  0  0  0  0  0  0  0  0
   23.2912    5.0684   -9.7383 C   0  0  0  0  0  0  0  0  0  0  0  0
   22.3129    5.8940  -10.4847 C   0  0  0  0  0  0  0  0  0  0  0  0
   24.6160    5.1706  -10.1159 N   0  0  0  0  0  0  0  0  0  0  0  0
   25.3528    4.3661   -9.3861 C   0  0  0  0  0  0  0  0  0  0  0  0
   24.5277    3.4651   -8.1997 S   0  0  0  0  0  0  0  0  0  0  0  0
   20.7989    4.6972   -7.7182 C   0  0  0  0  0  0  0  0  0  0  0  0
   19.6269    4.2991   -7.0897 C   0  0  0  0  0  0  0  0  0  0  0  0
   14.7697   -0.4995   -7.3991 C   0  0  0  0  0  0  0  0  0  0  0  0
   13.6207   -0.6676   -6.4155 C   0  0  1  0  0  0  0  0  0  0  0  0
   12.4982   -1.3093   -7.0149 O   0  0  0  0  0  0  0  0  0  0  0  0
   14.1949   -1.5566   -5.3257 C   0  0  0  0  0  0  0  0  0  0  0  0
   19.0221   -5.9778   -5.2970 H   0  0  0  0  0  0  0  0  0  0  0  0
   18.0000   -7.2401   -6.0109 H   0  0  0  0  0  0  0  0  0  0  0  0
   18.2586   -7.2117   -4.2491 H   0  0  0  0  0  0  0  0  0  0  0  0
   18.1097   -4.3259   -4.0725 H   0  0  0  0  0  0  0  0  0  0  0  0
   15.1983   -3.8707   -4.4672 H   0  0  0  0  0  0  0  0  0  0  0  0
   15.2041   -4.5661   -0.8498 H   0  0  0  0  0  0  0  0  0  0  0  0
   16.2282   -5.4311   -1.9971 H   0  0  0  0  0  0  0  0  0  0  0  0
   14.5629   -5.0509   -2.4176 H   0  0  0  0  0  0  0  0  0  0  0  0
   17.0096   -2.7689   -0.6967 H   0  0  0  0  0  0  0  0  0  0  0  0
   17.5120   -1.8802   -2.1332 H   0  0  0  0  0  0  0  0  0  0  0  0
   17.9983   -3.5580   -1.9106 H   0  0  0  0  0  0  0  0  0  0  0  0
   15.0675   -1.3075   -2.5320 H   0  0  0  0  0  0  0  0  0  0  0  0
   14.6165   -2.2372   -1.1123 H   0  0  0  0  0  0  0  0  0  0  0  0
   13.8610   -2.5692   -2.6908 H   0  0  0  0  0  0  0  0  0  0  0  0
   16.8600   -0.9794   -7.0960 H   0  0  0  0  0  0  0  0  0  0  0  0
   18.1081    0.7275   -7.1097 H   0  0  0  0  0  0  0  0  0  0  0  0
   17.3820    3.3054   -6.1128 H   0  0  0  0  0  0  0  0  0  0  0  0
   17.6688    2.2942   -3.8644 H   0  0  0  0  0  0  0  0  0  0  0  0
   18.9919    3.4226   -4.1560 H   0  0  0  0  0  0  0  0  0  0  0  0
   19.2586    1.6824   -4.2979 H   0  0  0  0  0  0  0  0  0  0  0  0
   20.2376    0.9903   -6.9247 H   0  0  0  0  0  0  0  0  0  0  0  0
   22.2659    1.6761   -7.9855 H   0  0  0  0  0  0  0  0  0  0  0  0
   22.7347    6.2370  -11.4340 H   0  0  0  0  0  0  0  0  0  0  0  0
   22.0325    6.7777   -9.9049 H   0  0  0  0  0  0  0  0  0  0  0  0
   21.4076    5.3289  -10.7168 H   0  0  0  0  0  0  0  0  0  0  0  0
   26.4218    4.2782   -9.5189 H   0  0  0  0  0  0  0  0  0  0  0  0
   20.9403    5.7531   -7.9247 H   0  0  0  0  0  0  0  0  0  0  0  0
   18.8954    5.0566   -6.8235 H   0  0  0  0  0  0  0  0  0  0  0  0
   14.6885    0.4303   -7.9721 H   0  0  0  0  0  0  0  0  0  0  0  0
   14.7712   -1.3262   -8.1176 H   0  0  0  0  0  0  0  0  0  0  0  0
   13.2957    0.2949   -6.0048 H   0  0  0  0  0  0  0  0  0  0  0  0
   12.1364   -0.7171   -7.6990 H   0  0  0  0  0  0  0  0  0  0  0  0
   13.8280   -2.5834   -5.3653 H   0  0  0  0  0  0  0  0  0  0  0  0
   13.9249   -1.1416   -4.3547 H   0  0  0  0  0  0  0  0  0  0  0  0
  1 35  1  0  0  0  0
  1 36  1  0  0  0  0
  1 37  1  0  0  0  0
  1  2  1  0  0  0  0
  2  3  2  0  0  0  0
  2  4  1  0  0  0  0
  4 38  1  0  0  0  0
  5  4  1  0  0  0  0
  5 39  1  0  0  0  0
  5  6  1  0  0  0  0
  5 10  1  0  0  0  0
  6  7  1  0  0  0  0
  6  8  1  0  0  0  0
  6  9  1  0  0  0  0
  7 40  1  0  0  0  0
  7 41  1  0  0  0  0
  7 42  1  0  0  0  0
  8 43  1  0  0  0  0
  8 44  1  0  0  0  0
  8 45  1  0  0  0  0
  9 46  1  0  0  0  0
  9 47  1  0  0  0  0
  9 48  1  0  0  0  0
 10 11  2  0  0  0  0
 10 12  1  0  0  0  0
 12 34  1  0  0  0  0
 13 12  1  0  0  0  0
 13 31  1  0  0  0  0
 13 49  1  0  0  0  0
 13 14  1  0  0  0  0
 14 15  2  0  0  0  0
 14 16  1  0  0  0  0
 16 50  1  0  0  0  0
 17 16  1  0  0  0  0
 17 51  1  0  0  0  0
 17 18  1  0  0  0  0
 17 19  1  0  0  0  0
 18 52  1  0  0  0  0
 18 53  1  0  0  0  0
 18 54  1  0  0  0  0
 19 20  1  0  0  0  0
 19 30  2  0  0  0  0
 20 55  1  0  0  0  0
 20 21  2  0  0  0  0
 21 56  1  0  0  0  0
 21 22  1  0  0  0  0
 22 29  2  0  0  0  0
 22 23  1  0  0  0  0
 23 24  2  0  0  0  0
 23 28  1  0  0  0  0
 24 25  1  0  0  0  0
 24 26  1  0  0  0  0
 25 57  1  0  0  0  0
 25 58  1  0  0  0  0
 25 59  1  0  0  0  0
 26 27  2  0  0  0  0
 27 60  1  0  0  0  0
 27 28  1  0  0  0  0
 29 61  1  0  0  0  0
 29 30  1  0  0  0  0
 30 62  1  0  0  0  0
 32 31  1  0  0  0  0
 31 63  1  0  0  0  0
 31 64  1  0  0  0  0
 32 34  1  0  0  0  0
 32 65  1  0  0  0  0
 32 33  1  0  0  0  0
 33 66  1  0  0  0  0
 34 67  1  0  0  0  0
 34 68  1  0  0  0  0
M  ZZC   1 c1
M  ZZC   2 c2
M  ZZC   3 o1
M  ZZC   4 n1
M  ZZC   5 c3
M  ZZC   6 c4
M  ZZC   7 c5
M  ZZC   8 c6
M  ZZC   9 c7
M  ZZC  10 c8
M  ZZC  11 o2
M  ZZC  12 n2
M  ZZC  13 c9
M  ZZC  14 c10
M  ZZC  15 o3
M  ZZC  16 n3
M  ZZC  17 c11
M  ZZC  18 c12
M  ZZC  19 c13
M  ZZC  20 c14
M  ZZC  21 c15
M  ZZC  22 c16
M  ZZC  23 c17
M  ZZC  24 c18
M  ZZC  25 c19
M  ZZC  26 n4
M  ZZC  27 c20
M  ZZC  28 s1
M  ZZC  29 c21
M  ZZC  30 c22
M  ZZC  31 c23
M  ZZC  32 c24
M  ZZC  33 o4
M  ZZC  34 c25
M  ZZC  35 h11
M  ZZC  36 h12
M  ZZC  37 h13
M  ZZC  38 h01
M  ZZC  39 h31
M  ZZC  40 h51
M  ZZC  41 h52
M  ZZC  42 h53
M  ZZC  43 h61
M  ZZC  44 h62
M  ZZC  45 h63
M  ZZC  46 h71
M  ZZC  47 h72
M  ZZC  48 h73
M  ZZC  49 h91
M  ZZC  50 h02
M  ZZC  51 h111
M  ZZC  52 h121
M  ZZC  53 h122
M  ZZC  54 h123
M  ZZC  55 h141
M  ZZC  56 h151
M  ZZC  57 h191
M  ZZC  58 h192
M  ZZC  59 h193
M  ZZC  60 h201
M  ZZC  61 h211
M  ZZC  62 h221
M  ZZC  63 h231
M  ZZC  64 h232
M  ZZC  65 h241
M  ZZC  66 h41
M  ZZC  67 h251
M  ZZC  68 h252
M  ZZM   1 1
M  ZZI   1 111
M  ZZM   2 3
M  ZZI   2 121
M  ZZM   3 7
M  ZZI   3 81
M  ZZM   4 10
M  ZZI   4 211
M  ZZM   5 1
M  ZZI   5 113
M  ZZM   6 1
M  ZZI   6 110
M  ZZM   7 1
M  ZZI   7 111
M  ZZM   8 1
M  ZZI   8 111
M  ZZM   9 1
M  ZZI   9 111
M  ZZM  10 3
M  ZZI  10 121
M  ZZM  11 7
M  ZZI  11 81
M  ZZM  12 10
M  ZZI  12 192
M  ZZM  13 1
M  ZZI  13 113
M  ZZM  14 3
M  ZZI  14 121
M  ZZM  15 7
M  ZZI  15 81
M  ZZM  16 10
M  ZZI  16 211
M  ZZM  17 1
M  ZZI  17 113
M  ZZM  18 1
M  ZZI  18 111
M  ZZM  19 37
M  ZZI  19 124
M  ZZM  20 37
M  ZZI  20 125
M  ZZM  21 37
M  ZZI  21 125
M  ZZM  22 37
M  ZZI  22 124
M  ZZM  23 63
M  ZZI  23 104
M  ZZM  24 64
M  ZZI  24 105
M  ZZM  25 1
M  ZZI  25 111
M  ZZM  26 66
M  ZZI  26 222
M  ZZM  27 63
M  ZZI  27 104
M  ZZM  28 44
M  ZZI  28 248
M  ZZM  29 37
M  ZZI  29 125
M  ZZM  30 37
M  ZZI  30 125
M  ZZM  31 1
M  ZZI  31 112
M  ZZM  32 1
M  ZZI  32 113
M  ZZM  33 6
M  ZZI  33 60
M  ZZM  34 1
M  ZZI  34 112
M  ZZM  35 5
M  ZZI  35 1
M  ZZM  36 5
M  ZZI  36 1
M  ZZM  37 5
M  ZZI  37 1
M  ZZM  38 28
M  ZZI  38 11
M  ZZM  39 5
M  ZZI  39 1
M  ZZM  40 5
M  ZZI  40 1
M  ZZM  41 5
M  ZZI  41 1
M  ZZM  42 5
M  ZZI  42 1
M  ZZM  43 5
M  ZZI  43 1
M  ZZM  44 5
M  ZZI  44 1
M  ZZM  45 5
M  ZZI  45 1
M  ZZM  46 5
M  ZZI  46 1
M  ZZM  47 5
M  ZZI  47 1
M  ZZM  48 5
M  ZZI  48 1
M  ZZM  49 5
M  ZZI  49 1
M  ZZM  50 28
M  ZZI  50 11
M  ZZM  51 5
M  ZZI  51 1
M  ZZM  52 5
M  ZZI  52 1
M  ZZM  53 5
M  ZZI  53 1
M  ZZM  54 5
M  ZZI  54 1
M  ZZM  55 5
M  ZZI  55 1
M  ZZM  56 5
M  ZZI  56 1
M  ZZM  57 5
M  ZZI  57 1
M  ZZM  58 5
M  ZZI  58 1
M  ZZM  59 5
M  ZZI  59 1
M  ZZM  60 5
M  ZZI  60 1
M  ZZM  61 5
M  ZZI  61 1
M  ZZM  62 5
M  ZZI  62 1
M  ZZM  63 5
M  ZZI  63 1
M  ZZM  64 5
M  ZZI  64 1
M  ZZM  65 5
M  ZZI  65 1
M  ZZM  66 21
M  ZZI  66 20
M  ZZM  67 5
M  ZZI  67 1
M  ZZM  68 5
M  ZZI  68 1
M  END
> <IX>
1

> <NAME>
VHL_4QNQ_24.pdb

> <Score>
-11.239322

> <Natom>
68

> <Nflex>
8

> <Hbond>
-5.031807

> <Hphob>
-6.299288

> <VwInt>
-27.364889

> <Dsolv>
17.026838

> <SolEl>
15.512425

> <Eintl>
8.780387

> <RecConf>
ND

> <projPath>
VHL_maps/

> <NAME_>
VHL_4QNQ_24.pdb

$$$$
