VHL_5GMP_11.pdb
  MOLSOFT 04032206403D

 65 67  0  0  1  0  0  0  0  0999 V2000
   18.1031   -6.6984   -5.1186 C   0  0  0  0  0  0  0  0  0  0  0  0
   16.8971   -5.8088   -4.9896 C   0  0  0  0  0  0  0  0  0  0  0  0
   15.8123   -6.1597   -5.4205 O   0  0  0  0  0  0  0  0  0  0  0  0
   17.1466   -4.6266   -4.3209 N   0  0  0  0  0  0  0  0  0  0  0  0
   16.1461   -3.5773   -4.0658 C   0  0  1  0  0  0  0  0  0  0  0  0
   15.8582   -3.4099   -2.5447 C   0  0  0  0  0  0  0  0  0  0  0  0
   14.7420   -2.3946   -2.2724 C   0  0  0  0  0  0  0  0  0  0  0  0
   17.0987   -2.9566   -1.7613 C   0  0  0  0  0  0  0  0  0  0  0  0
   15.3776   -4.7590   -1.9936 C   0  0  0  0  0  0  0  0  0  0  0  0
   16.6910   -2.3336   -4.7991 C   0  0  0  0  0  0  0  0  0  0  0  0
   17.8918   -2.0892   -4.8057 O   0  0  0  0  0  0  0  0  0  0  0  0
   15.7860   -1.5257   -5.4945 N   0  0  0  0  0  0  0  0  0  0  0  0
   16.2571   -0.5965   -6.5106 C   0  0  2  0  0  0  0  0  0  0  0  0
   16.6479    0.7706   -5.9436 C   0  0  0  0  0  0  0  0  0  0  0  0
   16.1274    1.2579   -4.9491 O   0  0  0  0  0  0  0  0  0  0  0  0
   17.5912    1.4243   -6.7132 N   0  0  0  0  0  0  0  0  0  0  0  0
   18.0617    2.7571   -6.3799 C   0  0  0  0  0  0  0  0  0  0  0  0
   19.3871    3.1065   -7.0121 C   0  0  0  0  0  0  0  0  0  0  0  0
   19.6879    4.4198   -7.3595 C   0  0  0  0  0  0  0  0  0  0  0  0
   20.9213    4.7551   -7.8997 C   0  0  0  0  0  0  0  0  0  0  0  0
   21.9051    3.7908   -8.1032 C   0  0  0  0  0  0  0  0  0  0  0  0
   23.1981    4.1215   -8.7057 C   0  0  0  0  0  0  0  0  0  0  0  0
   23.5256    4.9380   -9.7845 C   0  0  0  0  0  0  0  0  0  0  0  0
   22.6035    5.7158  -10.6460 C   0  0  0  0  0  0  0  0  0  0  0  0
   24.8719    5.0034  -10.0866 N   0  0  0  0  0  0  0  0  0  0  0  0
   25.5533    4.2483   -9.2570 C   0  0  0  0  0  0  0  0  0  0  0  0
   24.6462    3.4379   -8.0652 S   0  0  0  0  0  0  0  0  0  0  0  0
   21.6039    2.4860   -7.7293 C   0  0  0  0  0  0  0  0  0  0  0  0
   20.3743    2.1496   -7.2005 C   0  0  0  0  0  0  0  0  0  0  0  0
   15.0781   -0.4730   -7.4602 C   0  0  0  0  0  0  0  0  0  0  0  0
   13.8710   -0.5872   -6.5446 C   0  0  1  0  0  0  0  0  0  0  0  0
   12.7639   -1.1414   -7.2497 O   0  0  0  0  0  0  0  0  0  0  0  0
   14.3342   -1.5198   -5.4333 C   0  0  0  0  0  0  0  0  0  0  0  0
   19.0166   -6.1091   -5.2442 H   0  0  0  0  0  0  0  0  0  0  0  0
   17.9867   -7.3434   -5.9947 H   0  0  0  0  0  0  0  0  0  0  0  0
   18.1838   -7.3209   -4.2244 H   0  0  0  0  0  0  0  0  0  0  0  0
   18.1061   -4.4308   -4.0583 H   0  0  0  0  0  0  0  0  0  0  0  0
   15.2226   -3.8944   -4.5485 H   0  0  0  0  0  0  0  0  0  0  0  0
   15.0363   -1.3855   -2.5791 H   0  0  0  0  0  0  0  0  0  0  0  0
   14.5003   -2.3435   -1.2063 H   0  0  0  0  0  0  0  0  0  0  0  0
   13.8325   -2.6348   -2.8299 H   0  0  0  0  0  0  0  0  0  0  0  0
   16.8907   -2.8907   -0.6884 H   0  0  0  0  0  0  0  0  0  0  0  0
   17.4464   -1.9706   -2.0846 H   0  0  0  0  0  0  0  0  0  0  0  0
   17.9284   -3.6514   -1.8808 H   0  0  0  0  0  0  0  0  0  0  0  0
   15.1019   -4.6770   -0.9396 H   0  0  0  0  0  0  0  0  0  0  0  0
   16.1474   -5.5290   -2.0743 H   0  0  0  0  0  0  0  0  0  0  0  0
   14.4982   -5.1238   -2.5340 H   0  0  0  0  0  0  0  0  0  0  0  0
   17.1245   -1.0234   -7.0221 H   0  0  0  0  0  0  0  0  0  0  0  0
   17.9772    0.9537   -7.5266 H   0  0  0  0  0  0  0  0  0  0  0  0
   17.2851    3.4520   -6.7179 H   0  0  0  0  0  0  0  0  0  0  0  0
   18.1410    2.8463   -5.2909 H   0  0  0  0  0  0  0  0  0  0  0  0
   18.9521    5.2045   -7.2096 H   0  0  0  0  0  0  0  0  0  0  0  0
   21.1084    5.7934   -8.1541 H   0  0  0  0  0  0  0  0  0  0  0  0
   23.0596    5.9226  -11.6186 H   0  0  0  0  0  0  0  0  0  0  0  0
   22.3600    6.6742  -10.1790 H   0  0  0  0  0  0  0  0  0  0  0  0
   21.6719    5.1757  -10.8315 H   0  0  0  0  0  0  0  0  0  0  0  0
   26.6276    4.1447   -9.3156 H   0  0  0  0  0  0  0  0  0  0  0  0
   22.3234    1.6892   -7.8691 H   0  0  0  0  0  0  0  0  0  0  0  0
   20.1901    1.1129   -6.9429 H   0  0  0  0  0  0  0  0  0  0  0  0
   15.0697    0.4591   -8.0350 H   0  0  0  0  0  0  0  0  0  0  0  0
   15.0852   -1.2968   -8.1833 H   0  0  0  0  0  0  0  0  0  0  0  0
   13.5886    0.3969   -6.1522 H   0  0  0  0  0  0  0  0  0  0  0  0
   11.9530   -0.9165   -6.7600 H   0  0  0  0  0  0  0  0  0  0  0  0
   13.9323   -2.5301   -5.5143 H   0  0  0  0  0  0  0  0  0  0  0  0
   14.0196   -1.1131   -4.4717 H   0  0  0  0  0  0  0  0  0  0  0  0
  1 34  1  0  0  0  0
  1 35  1  0  0  0  0
  1 36  1  0  0  0  0
  1  2  1  0  0  0  0
  2  3  2  0  0  0  0
  2  4  1  0  0  0  0
  4 37  1  0  0  0  0
  5  4  1  0  0  0  0
  5 38  1  0  0  0  0
  5  6  1  0  0  0  0
  5 10  1  0  0  0  0
  6  7  1  0  0  0  0
  6  8  1  0  0  0  0
  6  9  1  0  0  0  0
  7 39  1  0  0  0  0
  7 40  1  0  0  0  0
  7 41  1  0  0  0  0
  8 42  1  0  0  0  0
  8 43  1  0  0  0  0
  8 44  1  0  0  0  0
  9 45  1  0  0  0  0
  9 46  1  0  0  0  0
  9 47  1  0  0  0  0
 10 11  2  0  0  0  0
 10 12  1  0  0  0  0
 12 33  1  0  0  0  0
 13 12  1  0  0  0  0
 13 30  1  0  0  0  0
 13 48  1  0  0  0  0
 13 14  1  0  0  0  0
 14 15  2  0  0  0  0
 14 16  1  0  0  0  0
 16 49  1  0  0  0  0
 16 17  1  0  0  0  0
 17 50  1  0  0  0  0
 17 51  1  0  0  0  0
 17 18  1  0  0  0  0
 18 19  1  0  0  0  0
 18 29  2  0  0  0  0
 19 52  1  0  0  0  0
 19 20  2  0  0  0  0
 20 53  1  0  0  0  0
 20 21  1  0  0  0  0
 21 28  2  0  0  0  0
 21 22  1  0  0  0  0
 22 23  2  0  0  0  0
 22 27  1  0  0  0  0
 23 24  1  0  0  0  0
 23 25  1  0  0  0  0
 24 54  1  0  0  0  0
 24 55  1  0  0  0  0
 24 56  1  0  0  0  0
 25 26  2  0  0  0  0
 26 57  1  0  0  0  0
 26 27  1  0  0  0  0
 28 58  1  0  0  0  0
 28 29  1  0  0  0  0
 29 59  1  0  0  0  0
 31 30  1  0  0  0  0
 30 60  1  0  0  0  0
 30 61  1  0  0  0  0
 31 33  1  0  0  0  0
 31 62  1  0  0  0  0
 31 32  1  0  0  0  0
 32 63  1  0  0  0  0
 33 64  1  0  0  0  0
 33 65  1  0  0  0  0
M  ZZC   1 c1
M  ZZC   2 c2
M  ZZC   3 o1
M  ZZC   4 n1
M  ZZC   5 c3
M  ZZC   6 c4
M  ZZC   7 c5
M  ZZC   8 c6
M  ZZC   9 c7
M  ZZC  10 c8
M  ZZC  11 o2
M  ZZC  12 n2
M  ZZC  13 c9
M  ZZC  14 c10
M  ZZC  15 o3
M  ZZC  16 n3
M  ZZC  17 c11
M  ZZC  18 c12
M  ZZC  19 c13
M  ZZC  20 c14
M  ZZC  21 c15
M  ZZC  22 c16
M  ZZC  23 c17
M  ZZC  24 c18
M  ZZC  25 n4
M  ZZC  26 c19
M  ZZC  27 s1
M  ZZC  28 c20
M  ZZC  29 c21
M  ZZC  30 c22
M  ZZC  31 c23
M  ZZC  32 o4
M  ZZC  33 c24
M  ZZC  34 h11
M  ZZC  35 h12
M  ZZC  36 h13
M  ZZC  37 h01
M  ZZC  38 h31
M  ZZC  39 h51
M  ZZC  40 h52
M  ZZC  41 h53
M  ZZC  42 h61
M  ZZC  43 h62
M  ZZC  44 h63
M  ZZC  45 h71
M  ZZC  46 h72
M  ZZC  47 h73
M  ZZC  48 h91
M  ZZC  49 h02
M  ZZC  50 h111
M  ZZC  51 h112
M  ZZC  52 h131
M  ZZC  53 h141
M  ZZC  54 h181
M  ZZC  55 h182
M  ZZC  56 h183
M  ZZC  57 h191
M  ZZC  58 h201
M  ZZC  59 h211
M  ZZC  60 h221
M  ZZC  61 h222
M  ZZC  62 h231
M  ZZC  63 h41
M  ZZC  64 h241
M  ZZC  65 h242
M  ZZM   1 1
M  ZZI   1 111
M  ZZM   2 3
M  ZZI   2 121
M  ZZM   3 7
M  ZZI   3 81
M  ZZM   4 10
M  ZZI   4 211
M  ZZM   5 1
M  ZZI   5 113
M  ZZM   6 1
M  ZZI   6 110
M  ZZM   7 1
M  ZZI   7 111
M  ZZM   8 1
M  ZZI   8 111
M  ZZM   9 1
M  ZZI   9 111
M  ZZM  10 3
M  ZZI  10 121
M  ZZM  11 7
M  ZZI  11 81
M  ZZM  12 10
M  ZZI  12 192
M  ZZM  13 1
M  ZZI  13 113
M  ZZM  14 3
M  ZZI  14 121
M  ZZM  15 7
M  ZZI  15 81
M  ZZM  16 10
M  ZZI  16 211
M  ZZM  17 1
M  ZZI  17 112
M  ZZM  18 37
M  ZZI  18 124
M  ZZM  19 37
M  ZZI  19 125
M  ZZM  20 37
M  ZZI  20 125
M  ZZM  21 37
M  ZZI  21 124
M  ZZM  22 63
M  ZZI  22 104
M  ZZM  23 64
M  ZZI  23 105
M  ZZM  24 1
M  ZZI  24 111
M  ZZM  25 66
M  ZZI  25 222
M  ZZM  26 63
M  ZZI  26 104
M  ZZM  27 44
M  ZZI  27 248
M  ZZM  28 37
M  ZZI  28 125
M  ZZM  29 37
M  ZZI  29 125
M  ZZM  30 1
M  ZZI  30 112
M  ZZM  31 1
M  ZZI  31 113
M  ZZM  32 6
M  ZZI  32 60
M  ZZM  33 1
M  ZZI  33 112
M  ZZM  34 5
M  ZZI  34 1
M  ZZM  35 5
M  ZZI  35 1
M  ZZM  36 5
M  ZZI  36 1
M  ZZM  37 28
M  ZZI  37 11
M  ZZM  38 5
M  ZZI  38 1
M  ZZM  39 5
M  ZZI  39 1
M  ZZM  40 5
M  ZZI  40 1
M  ZZM  41 5
M  ZZI  41 1
M  ZZM  42 5
M  ZZI  42 1
M  ZZM  43 5
M  ZZI  43 1
M  ZZM  44 5
M  ZZI  44 1
M  ZZM  45 5
M  ZZI  45 1
M  ZZM  46 5
M  ZZI  46 1
M  ZZM  47 5
M  ZZI  47 1
M  ZZM  48 5
M  ZZI  48 1
M  ZZM  49 28
M  ZZI  49 11
M  ZZM  50 5
M  ZZI  50 1
M  ZZM  51 5
M  ZZI  51 1
M  ZZM  52 5
M  ZZI  52 1
M  ZZM  53 5
M  ZZI  53 1
M  ZZM  54 5
M  ZZI  54 1
M  ZZM  55 5
M  ZZI  55 1
M  ZZM  56 5
M  ZZI  56 1
M  ZZM  57 5
M  ZZI  57 1
M  ZZM  58 5
M  ZZI  58 1
M  ZZM  59 5
M  ZZI  59 1
M  ZZM  60 5
M  ZZI  60 1
M  ZZM  61 5
M  ZZI  61 1
M  ZZM  62 5
M  ZZI  62 1
M  ZZM  63 21
M  ZZI  63 20
M  ZZM  64 5
M  ZZI  64 1
M  ZZM  65 5
M  ZZI  65 1
M  END
> <IX>
1

> <NAME>
VHL_5GMP_11.pdb

> <Score>
-12.026978

> <Natom>
65

> <Nflex>
8

> <Hbond>
-5.099573

> <Hphob>
-6.375999

> <VwInt>
-27.24509

> <Dsolv>
16.218767

> <SolEl>
16.477489

> <Eintl>
7.587887

> <RecConf>
ND

> <projPath>
VHL_maps/

> <NAME_>
VHL_5GMP_11.pdb

$$$$
