VHL_4IM0_25.pdb
  MOLSOFT 04032206383D

 65 67  0  0  1  0  0  0  0  0999 V2000
   16.1213   -6.3856   -5.6712 O   0  0  0  0  0  0  0  0  0  0  0  0
   17.2252   -6.0149   -5.3050 C   0  0  0  0  0  0  0  0  0  0  0  0
   17.5107   -4.7628   -4.7915 N   0  0  0  0  0  0  0  0  0  0  0  0
   16.5300   -3.6784   -4.6739 C   0  0  1  0  0  0  0  0  0  0  0  0
   15.9022   -3.5584   -3.2468 C   0  0  0  0  0  0  0  0  0  0  0  0
   16.8975   -2.9936   -2.2208 C   0  0  0  0  0  0  0  0  0  0  0  0
   15.4300   -4.9288   -2.7364 C   0  0  0  0  0  0  0  0  0  0  0  0
   14.6710   -2.6389   -3.2809 C   0  0  0  0  0  0  0  0  0  0  0  0
   17.2185   -2.3806   -5.1395 C   0  0  0  0  0  0  0  0  0  0  0  0
   18.3680   -2.1225   -4.8135 O   0  0  0  0  0  0  0  0  0  0  0  0
   16.4748   -1.4656   -5.8862 N   0  0  0  0  0  0  0  0  0  0  0  0
   17.0304   -0.1623   -6.2305 C   0  0  2  0  0  0  0  0  0  0  0  0
   17.2008    0.8025   -5.0647 C   0  0  0  0  0  0  0  0  0  0  0  0
   16.5381    0.7501   -4.0375 O   0  0  0  0  0  0  0  0  0  0  0  0
   18.1080    1.8021   -5.3608 N   0  0  0  0  0  0  0  0  0  0  0  0
   18.2105    3.0070   -4.5718 C   0  0  0  0  0  0  0  0  0  0  0  0
   17.2676    4.0537   -5.1076 C   0  0  0  0  0  0  0  0  0  0  0  0
   17.5538    4.7288   -6.2912 C   0  0  0  0  0  0  0  0  0  0  0  0
   16.6768    5.6727   -6.7981 C   0  0  0  0  0  0  0  0  0  0  0  0
   15.4919    5.9688   -6.1331 C   0  0  0  0  0  0  0  0  0  0  0  0
   14.6067    7.0079   -6.6379 C   0  0  0  0  0  0  0  0  0  0  0  0
   13.9324    7.1280   -7.8466 C   0  0  0  0  0  0  0  0  0  0  0  0
   13.9008    6.1429   -8.9512 C   0  0  0  0  0  0  0  0  0  0  0  0
   13.2277    8.3048   -8.0057 N   0  0  0  0  0  0  0  0  0  0  0  0
   13.3667    9.0471   -6.9304 C   0  0  0  0  0  0  0  0  0  0  0  0
   14.3046    8.3941   -5.6680 S   0  0  0  0  0  0  0  0  0  0  0  0
   15.1911    5.2748   -4.9652 C   0  0  0  0  0  0  0  0  0  0  0  0
   16.0662    4.3275   -4.4615 C   0  0  0  0  0  0  0  0  0  0  0  0
   16.0401    0.4524   -7.2137 C   0  0  0  0  0  0  0  0  0  0  0  0
   15.3792   -0.7506   -7.8450 C   0  0  1  0  0  0  0  0  0  0  0  0
   16.1796   -1.2257   -8.9365 O   0  0  0  0  0  0  0  0  0  0  0  0
   15.3281   -1.7724   -6.7174 C   0  0  0  0  0  0  0  0  0  0  0  0
   18.4166   -6.9303   -5.3756 C   0  0  0  0  0  0  0  0  0  0  0  0
   18.4612   -4.5682   -4.5023 H   0  0  0  0  0  0  0  0  0  0  0  0
   15.7466   -3.9200   -5.3785 H   0  0  0  0  0  0  0  0  0  0  0  0
   17.8178   -3.5797   -2.1901 H   0  0  0  0  0  0  0  0  0  0  0  0
   16.4756   -3.0014   -1.2104 H   0  0  0  0  0  0  0  0  0  0  0  0
   17.1724   -1.9576   -2.4402 H   0  0  0  0  0  0  0  0  0  0  0  0
   14.7060   -5.3775   -3.4190 H   0  0  0  0  0  0  0  0  0  0  0  0
   14.9414   -4.8478   -1.7604 H   0  0  0  0  0  0  0  0  0  0  0  0
   16.2587   -5.6317   -2.6158 H   0  0  0  0  0  0  0  0  0  0  0  0
   14.1860   -2.5841   -2.3012 H   0  0  0  0  0  0  0  0  0  0  0  0
   13.9244   -2.9777   -4.0038 H   0  0  0  0  0  0  0  0  0  0  0  0
   14.9424   -1.6167   -3.5640 H   0  0  0  0  0  0  0  0  0  0  0  0
   18.0040   -0.3253   -6.6947 H   0  0  0  0  0  0  0  0  0  0  0  0
   18.6470    1.7537   -6.2190 H   0  0  0  0  0  0  0  0  0  0  0  0
   17.9948    2.7810   -3.5219 H   0  0  0  0  0  0  0  0  0  0  0  0
   19.2457    3.3599   -4.6279 H   0  0  0  0  0  0  0  0  0  0  0  0
   18.4754    4.5248   -6.8288 H   0  0  0  0  0  0  0  0  0  0  0  0
   16.9390    6.1975   -7.7125 H   0  0  0  0  0  0  0  0  0  0  0  0
   14.8701    6.0867   -9.4547 H   0  0  0  0  0  0  0  0  0  0  0  0
   13.1534    6.4178   -9.7015 H   0  0  0  0  0  0  0  0  0  0  0  0
   13.6622    5.1446   -8.5738 H   0  0  0  0  0  0  0  0  0  0  0  0
   12.9182   10.0227   -6.8332 H   0  0  0  0  0  0  0  0  0  0  0  0
   14.2639    5.4679   -4.4329 H   0  0  0  0  0  0  0  0  0  0  0  0
   15.8004    3.7961   -3.5518 H   0  0  0  0  0  0  0  0  0  0  0  0
   15.2895    1.0559   -6.6897 H   0  0  0  0  0  0  0  0  0  0  0  0
   16.5420    1.0956   -7.9444 H   0  0  0  0  0  0  0  0  0  0  0  0
   14.3853   -0.5151   -8.2249 H   0  0  0  0  0  0  0  0  0  0  0  0
   17.1131   -1.1712   -8.6598 H   0  0  0  0  0  0  0  0  0  0  0  0
   15.3893   -2.7952   -7.0965 H   0  0  0  0  0  0  0  0  0  0  0  0
   14.4304   -1.6461   -6.1041 H   0  0  0  0  0  0  0  0  0  0  0  0
   18.4478   -7.4009   -6.3619 H   0  0  0  0  0  0  0  0  0  0  0  0
   18.3171   -7.7025   -4.6088 H   0  0  0  0  0  0  0  0  0  0  0  0
   19.3541   -6.3879   -5.2249 H   0  0  0  0  0  0  0  0  0  0  0  0
  1  2  2  0  0  0  0
  2  3  1  0  0  0  0
  2 33  1  0  0  0  0
  4  3  1  0  0  0  0
  3 34  1  0  0  0  0
  4  5  1  0  0  0  0
  4 35  1  0  0  0  0
  4  9  1  0  0  0  0
  5  6  1  0  0  0  0
  5  7  1  0  0  0  0
  5  8  1  0  0  0  0
  6 36  1  0  0  0  0
  6 37  1  0  0  0  0
  6 38  1  0  0  0  0
  7 39  1  0  0  0  0
  7 40  1  0  0  0  0
  7 41  1  0  0  0  0
  8 42  1  0  0  0  0
  8 43  1  0  0  0  0
  8 44  1  0  0  0  0
  9 10  2  0  0  0  0
  9 11  1  0  0  0  0
 11 32  1  0  0  0  0
 12 11  1  0  0  0  0
 12 29  1  0  0  0  0
 12 45  1  0  0  0  0
 12 13  1  0  0  0  0
 13 14  2  0  0  0  0
 13 15  1  0  0  0  0
 15 46  1  0  0  0  0
 15 16  1  0  0  0  0
 16 47  1  0  0  0  0
 16 48  1  0  0  0  0
 16 17  1  0  0  0  0
 17 18  1  0  0  0  0
 17 28  2  0  0  0  0
 18 49  1  0  0  0  0
 18 19  2  0  0  0  0
 19 50  1  0  0  0  0
 19 20  1  0  0  0  0
 20 27  2  0  0  0  0
 20 21  1  0  0  0  0
 21 22  2  0  0  0  0
 21 26  1  0  0  0  0
 22 23  1  0  0  0  0
 22 24  1  0  0  0  0
 23 51  1  0  0  0  0
 23 52  1  0  0  0  0
 23 53  1  0  0  0  0
 24 25  2  0  0  0  0
 25 54  1  0  0  0  0
 25 26  1  0  0  0  0
 27 55  1  0  0  0  0
 27 28  1  0  0  0  0
 28 56  1  0  0  0  0
 30 29  1  0  0  0  0
 29 57  1  0  0  0  0
 29 58  1  0  0  0  0
 30 32  1  0  0  0  0
 30 59  1  0  0  0  0
 30 31  1  0  0  0  0
 31 60  1  0  0  0  0
 32 61  1  0  0  0  0
 32 62  1  0  0  0  0
 33 63  1  0  0  0  0
 33 64  1  0  0  0  0
 33 65  1  0  0  0  0
M  ZZC   1 o1
M  ZZC   2 c1
M  ZZC   3 n1
M  ZZC   4 c2
M  ZZC   5 c3
M  ZZC   6 c4
M  ZZC   7 c5
M  ZZC   8 c6
M  ZZC   9 c7
M  ZZC  10 o2
M  ZZC  11 n2
M  ZZC  12 c8
M  ZZC  13 c9
M  ZZC  14 o3
M  ZZC  15 n3
M  ZZC  16 c10
M  ZZC  17 c11
M  ZZC  18 c12
M  ZZC  19 c13
M  ZZC  20 c14
M  ZZC  21 c15
M  ZZC  22 c16
M  ZZC  23 c17
M  ZZC  24 n4
M  ZZC  25 c18
M  ZZC  26 s1
M  ZZC  27 c19
M  ZZC  28 c20
M  ZZC  29 c21
M  ZZC  30 c22
M  ZZC  31 o4
M  ZZC  32 c23
M  ZZC  33 c24
M  ZZC  34 h11
M  ZZC  35 h21
M  ZZC  36 h41
M  ZZC  37 h42
M  ZZC  38 h43
M  ZZC  39 h51
M  ZZC  40 h52
M  ZZC  41 h53
M  ZZC  42 h61
M  ZZC  43 h62
M  ZZC  44 h63
M  ZZC  45 h81
M  ZZC  46 h31
M  ZZC  47 h101
M  ZZC  48 h102
M  ZZC  49 h121
M  ZZC  50 h131
M  ZZC  51 h171
M  ZZC  52 h172
M  ZZC  53 h173
M  ZZC  54 h181
M  ZZC  55 h191
M  ZZC  56 h201
M  ZZC  57 h211
M  ZZC  58 h212
M  ZZC  59 h221
M  ZZC  60 h01
M  ZZC  61 h231
M  ZZC  62 h232
M  ZZC  63 h241
M  ZZC  64 h242
M  ZZC  65 h243
M  ZZM   1 7
M  ZZI   1 81
M  ZZM   2 3
M  ZZI   2 121
M  ZZM   3 10
M  ZZI   3 211
M  ZZM   4 1
M  ZZI   4 113
M  ZZM   5 1
M  ZZI   5 110
M  ZZM   6 1
M  ZZI   6 111
M  ZZM   7 1
M  ZZI   7 111
M  ZZM   8 1
M  ZZI   8 111
M  ZZM   9 3
M  ZZI   9 121
M  ZZM  10 7
M  ZZI  10 81
M  ZZM  11 10
M  ZZI  11 192
M  ZZM  12 1
M  ZZI  12 113
M  ZZM  13 3
M  ZZI  13 121
M  ZZM  14 7
M  ZZI  14 81
M  ZZM  15 10
M  ZZI  15 211
M  ZZM  16 1
M  ZZI  16 112
M  ZZM  17 37
M  ZZI  17 124
M  ZZM  18 37
M  ZZI  18 125
M  ZZM  19 37
M  ZZI  19 125
M  ZZM  20 37
M  ZZI  20 124
M  ZZM  21 63
M  ZZI  21 104
M  ZZM  22 64
M  ZZI  22 105
M  ZZM  23 1
M  ZZI  23 111
M  ZZM  24 66
M  ZZI  24 222
M  ZZM  25 63
M  ZZI  25 104
M  ZZM  26 44
M  ZZI  26 248
M  ZZM  27 37
M  ZZI  27 125
M  ZZM  28 37
M  ZZI  28 125
M  ZZM  29 1
M  ZZI  29 112
M  ZZM  30 1
M  ZZI  30 113
M  ZZM  31 6
M  ZZI  31 60
M  ZZM  32 1
M  ZZI  32 112
M  ZZM  33 1
M  ZZI  33 111
M  ZZM  34 28
M  ZZI  34 11
M  ZZM  35 5
M  ZZI  35 1
M  ZZM  36 5
M  ZZI  36 1
M  ZZM  37 5
M  ZZI  37 1
M  ZZM  38 5
M  ZZI  38 1
M  ZZM  39 5
M  ZZI  39 1
M  ZZM  40 5
M  ZZI  40 1
M  ZZM  41 5
M  ZZI  41 1
M  ZZM  42 5
M  ZZI  42 1
M  ZZM  43 5
M  ZZI  43 1
M  ZZM  44 5
M  ZZI  44 1
M  ZZM  45 5
M  ZZI  45 1
M  ZZM  46 28
M  ZZI  46 11
M  ZZM  47 5
M  ZZI  47 1
M  ZZM  48 5
M  ZZI  48 1
M  ZZM  49 5
M  ZZI  49 1
M  ZZM  50 5
M  ZZI  50 1
M  ZZM  51 5
M  ZZI  51 1
M  ZZM  52 5
M  ZZI  52 1
M  ZZM  53 5
M  ZZI  53 1
M  ZZM  54 5
M  ZZI  54 1
M  ZZM  55 5
M  ZZI  55 1
M  ZZM  56 5
M  ZZI  56 1
M  ZZM  57 5
M  ZZI  57 1
M  ZZM  58 5
M  ZZI  58 1
M  ZZM  59 5
M  ZZI  59 1
M  ZZM  60 21
M  ZZI  60 20
M  ZZM  61 5
M  ZZI  61 1
M  ZZM  62 5
M  ZZI  62 1
M  ZZM  63 5
M  ZZI  63 1
M  ZZM  64 5
M  ZZI  64 1
M  ZZM  65 5
M  ZZI  65 1
M  END
> <IX>
1

> <NAME>
VHL_4IM0_25.pdb

> <Score>
-24.082916

> <Natom>
65

> <Nflex>
8

> <Hbond>
-7.871939

> <Hphob>
-6.395387

> <VwInt>
-30.504015

> <Dsolv>
21.322979

> <SolEl>
10.806578

> <Eintl>
4.495733

> <RecConf>
ND

> <projPath>
VHL_maps/

> <NAME_>
VHL_4IM0_25.pdb

$$$$
