VHL_5VBP_5.pdb
  MOLSOFT 04032206433D

 65 67  0  0  1  0  0  0  0  0999 V2000
   18.3978   -6.9922   -5.3639 C   0  0  0  0  0  0  0  0  0  0  0  0
   17.2149   -6.0653   -5.2980 C   0  0  0  0  0  0  0  0  0  0  0  0
   16.1159   -6.4256   -5.6887 O   0  0  0  0  0  0  0  0  0  0  0  0
   17.5031   -4.8292   -4.7511 N   0  0  0  0  0  0  0  0  0  0  0  0
   16.5239   -3.7452   -4.6290 C   0  0  1  0  0  0  0  0  0  0  0  0
   15.9015   -3.6225   -3.2004 C   0  0  0  0  0  0  0  0  0  0  0  0
   16.8977   -3.0509   -2.1796 C   0  0  0  0  0  0  0  0  0  0  0  0
   14.6664   -2.7078   -3.2303 C   0  0  0  0  0  0  0  0  0  0  0  0
   15.4355   -4.9941   -2.6894 C   0  0  0  0  0  0  0  0  0  0  0  0
   17.2049   -2.4470   -5.1029 C   0  0  0  0  0  0  0  0  0  0  0  0
   18.3545   -2.1777   -4.7869 O   0  0  0  0  0  0  0  0  0  0  0  0
   16.4444   -1.5406   -5.8407 N   0  0  0  0  0  0  0  0  0  0  0  0
   16.9668   -0.2207   -6.1777 C   0  0  2  0  0  0  0  0  0  0  0  0
   17.1496    0.7393   -5.0153 C   0  0  0  0  0  0  0  0  0  0  0  0
   16.5122    0.6693   -3.9736 O   0  0  0  0  0  0  0  0  0  0  0  0
   18.0285    1.7570   -5.3313 N   0  0  0  0  0  0  0  0  0  0  0  0
   18.1381    2.9583   -4.5379 C   0  0  0  0  0  0  0  0  0  0  0  0
   17.2066    4.0136   -5.0758 C   0  0  0  0  0  0  0  0  0  0  0  0
   16.0108    4.3066   -4.4279 C   0  0  0  0  0  0  0  0  0  0  0  0
   15.1467    5.2626   -4.9347 C   0  0  0  0  0  0  0  0  0  0  0  0
   15.4527    5.9454   -6.1081 C   0  0  0  0  0  0  0  0  0  0  0  0
   14.5794    6.9915   -6.6195 C   0  0  0  0  0  0  0  0  0  0  0  0
   13.9182    7.1181   -7.8347 C   0  0  0  0  0  0  0  0  0  0  0  0
   13.8902    6.1347   -8.9409 C   0  0  0  0  0  0  0  0  0  0  0  0
   13.2253    8.3008   -8.0003 N   0  0  0  0  0  0  0  0  0  0  0  0
   13.3595    9.0413   -6.9236 C   0  0  0  0  0  0  0  0  0  0  0  0
   14.2781    8.3793   -5.6514 S   0  0  0  0  0  0  0  0  0  0  0  0
   16.6321    5.6299   -6.7740 C   0  0  0  0  0  0  0  0  0  0  0  0
   17.4986    4.6786   -6.2637 C   0  0  0  0  0  0  0  0  0  0  0  0
   15.9098    0.3857   -7.0861 C   0  0  1  0  0  0  0  0  0  0  0  0
   16.4656    1.2438   -7.9860 F   0  0  0  0  0  0  0  0  0  0  0  0
   15.3157   -0.8195   -7.7830 C   0  0  1  0  0  0  0  0  0  0  0  0
   16.1368   -1.2501   -8.8849 O   0  0  0  0  0  0  0  0  0  0  0  0
   15.3050   -1.8675   -6.6786 C   0  0  0  0  0  0  0  0  0  0  0  0
   19.3407   -6.4555   -5.2258 H   0  0  0  0  0  0  0  0  0  0  0  0
   18.4196   -7.4750   -6.3445 H   0  0  0  0  0  0  0  0  0  0  0  0
   18.2957   -7.7540   -4.5875 H   0  0  0  0  0  0  0  0  0  0  0  0
   18.4500   -4.6488   -4.4394 H   0  0  0  0  0  0  0  0  0  0  0  0
   15.7340   -3.9894   -5.3251 H   0  0  0  0  0  0  0  0  0  0  0  0
   16.4809   -3.0606   -1.1672 H   0  0  0  0  0  0  0  0  0  0  0  0
   17.1643   -2.0132   -2.4014 H   0  0  0  0  0  0  0  0  0  0  0  0
   17.8222   -3.6295   -2.1535 H   0  0  0  0  0  0  0  0  0  0  0  0
   14.9197   -1.6825   -3.5119 H   0  0  0  0  0  0  0  0  0  0  0  0
   14.1839   -2.6547   -2.2490 H   0  0  0  0  0  0  0  0  0  0  0  0
   13.9160   -3.0727   -3.9386 H   0  0  0  0  0  0  0  0  0  0  0  0
   14.9552   -4.9163   -1.7092 H   0  0  0  0  0  0  0  0  0  0  0  0
   16.2657   -5.6969   -2.5801 H   0  0  0  0  0  0  0  0  0  0  0  0
   14.7061   -5.4404   -3.3680 H   0  0  0  0  0  0  0  0  0  0  0  0
   17.9249   -0.3419   -6.6864 H   0  0  0  0  0  0  0  0  0  0  0  0
   18.5303    1.7305   -6.2134 H   0  0  0  0  0  0  0  0  0  0  0  0
   17.9165    2.7324   -3.4892 H   0  0  0  0  0  0  0  0  0  0  0  0
   19.1763    3.3027   -4.5899 H   0  0  0  0  0  0  0  0  0  0  0  0
   15.7410    3.7845   -3.5141 H   0  0  0  0  0  0  0  0  0  0  0  0
   14.2234    5.4704   -4.4012 H   0  0  0  0  0  0  0  0  0  0  0  0
   14.8526    6.1007   -9.4593 H   0  0  0  0  0  0  0  0  0  0  0  0
   13.1257    6.3935   -9.6796 H   0  0  0  0  0  0  0  0  0  0  0  0
   13.6799    5.1309   -8.5612 H   0  0  0  0  0  0  0  0  0  0  0  0
   12.9193   10.0211   -6.8311 H   0  0  0  0  0  0  0  0  0  0  0  0
   16.8988    6.1447   -7.6928 H   0  0  0  0  0  0  0  0  0  0  0  0
   18.4151    4.4587   -6.8037 H   0  0  0  0  0  0  0  0  0  0  0  0
   15.1409    0.9284   -6.5230 H   0  0  0  0  0  0  0  0  0  0  0  0
   14.3139   -0.6161   -8.1601 H   0  0  0  0  0  0  0  0  0  0  0  0
   17.0707   -1.1003   -8.6441 H   0  0  0  0  0  0  0  0  0  0  0  0
   15.4060   -2.8774   -7.0817 H   0  0  0  0  0  0  0  0  0  0  0  0
   14.4044   -1.7895   -6.0614 H   0  0  0  0  0  0  0  0  0  0  0  0
  1 35  1  0  0  0  0
  1 36  1  0  0  0  0
  1 37  1  0  0  0  0
  1  2  1  0  0  0  0
  2  3  2  0  0  0  0
  2  4  1  0  0  0  0
  4 38  1  0  0  0  0
  5  4  1  0  0  0  0
  5 39  1  0  0  0  0
  5  6  1  0  0  0  0
  5 10  1  0  0  0  0
  6  7  1  0  0  0  0
  6  8  1  0  0  0  0
  6  9  1  0  0  0  0
  7 40  1  0  0  0  0
  7 41  1  0  0  0  0
  7 42  1  0  0  0  0
  8 43  1  0  0  0  0
  8 44  1  0  0  0  0
  8 45  1  0  0  0  0
  9 46  1  0  0  0  0
  9 47  1  0  0  0  0
  9 48  1  0  0  0  0
 10 11  2  0  0  0  0
 10 12  1  0  0  0  0
 12 34  1  0  0  0  0
 13 12  1  0  0  0  0
 13 30  1  0  0  0  0
 13 49  1  0  0  0  0
 13 14  1  0  0  0  0
 14 15  2  0  0  0  0
 14 16  1  0  0  0  0
 16 50  1  0  0  0  0
 16 17  1  0  0  0  0
 17 51  1  0  0  0  0
 17 52  1  0  0  0  0
 17 18  1  0  0  0  0
 18 19  1  0  0  0  0
 18 29  2  0  0  0  0
 19 53  1  0  0  0  0
 19 20  2  0  0  0  0
 20 54  1  0  0  0  0
 20 21  1  0  0  0  0
 21 28  2  0  0  0  0
 21 22  1  0  0  0  0
 22 23  2  0  0  0  0
 22 27  1  0  0  0  0
 23 24  1  0  0  0  0
 23 25  1  0  0  0  0
 24 55  1  0  0  0  0
 24 56  1  0  0  0  0
 24 57  1  0  0  0  0
 25 26  2  0  0  0  0
 26 58  1  0  0  0  0
 26 27  1  0  0  0  0
 28 59  1  0  0  0  0
 28 29  1  0  0  0  0
 29 60  1  0  0  0  0
 30 32  1  0  0  0  0
 30 31  1  0  0  0  0
 30 61  1  0  0  0  0
 32 34  1  0  0  0  0
 32 62  1  0  0  0  0
 32 33  1  0  0  0  0
 33 63  1  0  0  0  0
 34 64  1  0  0  0  0
 34 65  1  0  0  0  0
M  ZZC   1 c1
M  ZZC   2 c2
M  ZZC   3 o1
M  ZZC   4 n1
M  ZZC   5 c3
M  ZZC   6 c4
M  ZZC   7 c5
M  ZZC   8 c6
M  ZZC   9 c7
M  ZZC  10 c8
M  ZZC  11 o2
M  ZZC  12 n2
M  ZZC  13 c9
M  ZZC  14 c10
M  ZZC  15 o3
M  ZZC  16 n3
M  ZZC  17 c11
M  ZZC  18 c12
M  ZZC  19 c13
M  ZZC  20 c14
M  ZZC  21 c15
M  ZZC  22 c16
M  ZZC  23 c17
M  ZZC  24 c18
M  ZZC  25 n4
M  ZZC  26 c19
M  ZZC  27 s1
M  ZZC  28 c20
M  ZZC  29 c21
M  ZZC  30 c22
M  ZZC  31 f1
M  ZZC  32 c23
M  ZZC  33 o4
M  ZZC  34 c24
M  ZZC  35 h11
M  ZZC  36 h12
M  ZZC  37 h13
M  ZZC  38 h01
M  ZZC  39 h31
M  ZZC  40 h51
M  ZZC  41 h52
M  ZZC  42 h53
M  ZZC  43 h61
M  ZZC  44 h62
M  ZZC  45 h63
M  ZZC  46 h71
M  ZZC  47 h72
M  ZZC  48 h73
M  ZZC  49 h91
M  ZZC  50 h02
M  ZZC  51 h111
M  ZZC  52 h112
M  ZZC  53 h131
M  ZZC  54 h141
M  ZZC  55 h181
M  ZZC  56 h182
M  ZZC  57 h183
M  ZZC  58 h191
M  ZZC  59 h201
M  ZZC  60 h211
M  ZZC  61 h221
M  ZZC  62 h231
M  ZZC  63 h41
M  ZZC  64 h241
M  ZZC  65 h242
M  ZZM   1 1
M  ZZI   1 111
M  ZZM   2 3
M  ZZI   2 121
M  ZZM   3 7
M  ZZI   3 81
M  ZZM   4 10
M  ZZI   4 211
M  ZZM   5 1
M  ZZI   5 113
M  ZZM   6 1
M  ZZI   6 110
M  ZZM   7 1
M  ZZI   7 111
M  ZZM   8 1
M  ZZI   8 111
M  ZZM   9 1
M  ZZI   9 111
M  ZZM  10 3
M  ZZI  10 121
M  ZZM  11 7
M  ZZI  11 81
M  ZZM  12 10
M  ZZI  12 192
M  ZZM  13 1
M  ZZI  13 113
M  ZZM  14 3
M  ZZI  14 121
M  ZZM  15 7
M  ZZI  15 81
M  ZZM  16 10
M  ZZI  16 211
M  ZZM  17 1
M  ZZI  17 112
M  ZZM  18 37
M  ZZI  18 124
M  ZZM  19 37
M  ZZI  19 125
M  ZZM  20 37
M  ZZI  20 125
M  ZZM  21 37
M  ZZI  21 124
M  ZZM  22 63
M  ZZI  22 104
M  ZZM  23 64
M  ZZI  23 105
M  ZZM  24 1
M  ZZI  24 111
M  ZZM  25 66
M  ZZI  25 222
M  ZZM  26 63
M  ZZI  26 104
M  ZZM  27 44
M  ZZI  27 248
M  ZZM  28 37
M  ZZI  28 125
M  ZZM  29 37
M  ZZI  29 125
M  ZZM  30 1
M  ZZI  30 113
M  ZZM  31 11
M  ZZI  31 90
M  ZZM  32 1
M  ZZI  32 113
M  ZZM  33 6
M  ZZI  33 60
M  ZZM  34 1
M  ZZI  34 112
M  ZZM  35 5
M  ZZI  35 1
M  ZZM  36 5
M  ZZI  36 1
M  ZZM  37 5
M  ZZI  37 1
M  ZZM  38 28
M  ZZI  38 11
M  ZZM  39 5
M  ZZI  39 1
M  ZZM  40 5
M  ZZI  40 1
M  ZZM  41 5
M  ZZI  41 1
M  ZZM  42 5
M  ZZI  42 1
M  ZZM  43 5
M  ZZI  43 1
M  ZZM  44 5
M  ZZI  44 1
M  ZZM  45 5
M  ZZI  45 1
M  ZZM  46 5
M  ZZI  46 1
M  ZZM  47 5
M  ZZI  47 1
M  ZZM  48 5
M  ZZI  48 1
M  ZZM  49 5
M  ZZI  49 1
M  ZZM  50 28
M  ZZI  50 11
M  ZZM  51 5
M  ZZI  51 1
M  ZZM  52 5
M  ZZI  52 1
M  ZZM  53 5
M  ZZI  53 1
M  ZZM  54 5
M  ZZI  54 1
M  ZZM  55 5
M  ZZI  55 1
M  ZZM  56 5
M  ZZI  56 1
M  ZZM  57 5
M  ZZI  57 1
M  ZZM  58 5
M  ZZI  58 1
M  ZZM  59 5
M  ZZI  59 1
M  ZZM  60 5
M  ZZI  60 1
M  ZZM  61 5
M  ZZI  61 1
M  ZZM  62 5
M  ZZI  62 1
M  ZZM  63 21
M  ZZI  63 20
M  ZZM  64 5
M  ZZI  64 1
M  ZZM  65 5
M  ZZI  65 1
M  END
> <IX>
1

> <NAME>
VHL_5VBP_5.pdb

> <Score>
-23.8852

> <Natom>
65

> <Nflex>
8

> <Hbond>
-7.807574

> <Hphob>
-6.464941

> <VwInt>
-30.36618

> <Dsolv>
21.174126

> <SolEl>
10.953109

> <Eintl>
4.426674

> <RecConf>
ND

> <projPath>
VHL_maps/

> <NAME_>
VHL_5VBP_5.pdb

$$$$
