VHL_4IM0_21.pdb
  MOLSOFT 04032206383D

 65 67  0  0  1  0  0  0  0  0999 V2000
   18.0760   -6.8402   -5.1182 C   0  0  0  0  0  0  0  0  0  0  0  0
   16.8821   -5.9327   -5.0076 C   0  0  0  0  0  0  0  0  0  0  0  0
   15.8064   -6.2542   -5.4819 O   0  0  0  0  0  0  0  0  0  0  0  0
   17.1323   -4.7718   -4.3036 N   0  0  0  0  0  0  0  0  0  0  0  0
   16.1473   -3.7046   -4.0641 C   0  0  1  0  0  0  0  0  0  0  0  0
   15.8404   -3.5254   -2.5484 C   0  0  0  0  0  0  0  0  0  0  0  0
   15.3425   -4.8682   -2.0032 C   0  0  0  0  0  0  0  0  0  0  0  0
   17.0714   -3.0755   -1.7487 C   0  0  0  0  0  0  0  0  0  0  0  0
   14.7272   -2.5038   -2.2897 C   0  0  0  0  0  0  0  0  0  0  0  0
   16.7354   -2.4778   -4.7850 C   0  0  0  0  0  0  0  0  0  0  0  0
   17.9420   -2.2657   -4.7750 O   0  0  0  0  0  0  0  0  0  0  0  0
   15.8649   -1.6314   -5.4752 N   0  0  0  0  0  0  0  0  0  0  0  0
   16.3913   -0.6522   -6.4099 C   0  0  2  0  0  0  0  0  0  0  0  0
   16.8453    0.6173   -5.6894 C   0  0  0  0  0  0  0  0  0  0  0  0
   16.3884    0.9661   -4.6089 O   0  0  0  0  0  0  0  0  0  0  0  0
   17.7805    1.3442   -6.4040 N   0  0  0  0  0  0  0  0  0  0  0  0
   18.3344    2.5884   -5.9068 C   0  0  0  0  0  0  0  0  0  0  0  0
   17.4339    3.7662   -6.1833 C   0  0  0  0  0  0  0  0  0  0  0  0
   16.4188    4.1063   -5.2940 C   0  0  0  0  0  0  0  0  0  0  0  0
   15.5637    5.1608   -5.5565 C   0  0  0  0  0  0  0  0  0  0  0  0
   15.7031    5.9101   -6.7179 C   0  0  0  0  0  0  0  0  0  0  0  0
   14.7929    7.0070   -7.0070 C   0  0  0  0  0  0  0  0  0  0  0  0
   13.8883    7.1690   -8.0457 C   0  0  0  0  0  0  0  0  0  0  0  0
   13.6079    6.1982   -9.1252 C   0  0  0  0  0  0  0  0  0  0  0  0
   13.1916    8.3605   -8.0342 N   0  0  0  0  0  0  0  0  0  0  0  0
   13.5601    9.0738   -6.9935 C   0  0  0  0  0  0  0  0  0  0  0  0
   14.7374    8.3794   -5.9733 S   0  0  0  0  0  0  0  0  0  0  0  0
   16.7217    5.5805   -7.6063 C   0  0  0  0  0  0  0  0  0  0  0  0
   17.5770    4.5226   -7.3417 C   0  0  0  0  0  0  0  0  0  0  0  0
   15.2376   -0.3927   -7.3649 C   0  0  0  0  0  0  0  0  0  0  0  0
   14.0012   -0.5638   -6.4981 C   0  0  1  0  0  0  0  0  0  0  0  0
   12.9122   -1.0570   -7.2757 O   0  0  0  0  0  0  0  0  0  0  0  0
   14.4143   -1.5800   -5.4419 C   0  0  0  0  0  0  0  0  0  0  0  0
   19.0005   -6.2625   -5.2134 H   0  0  0  0  0  0  0  0  0  0  0  0
   17.9712   -7.4725   -6.0048 H   0  0  0  0  0  0  0  0  0  0  0  0
   18.1241   -7.4732   -4.2291 H   0  0  0  0  0  0  0  0  0  0  0  0
   18.0902   -4.5936   -4.0216 H   0  0  0  0  0  0  0  0  0  0  0  0
   15.2244   -4.0001   -4.5610 H   0  0  0  0  0  0  0  0  0  0  0  0
   15.0629   -4.7829   -0.9512 H   0  0  0  0  0  0  0  0  0  0  0  0
   16.1047   -5.6455   -2.0832 H   0  0  0  0  0  0  0  0  0  0  0  0
   14.4614   -5.2221   -2.5481 H   0  0  0  0  0  0  0  0  0  0  0  0
   16.8503   -3.0110   -0.6783 H   0  0  0  0  0  0  0  0  0  0  0  0
   17.4244   -2.0893   -2.0655 H   0  0  0  0  0  0  0  0  0  0  0  0
   17.9011   -3.7704   -1.8595 H   0  0  0  0  0  0  0  0  0  0  0  0
   15.0379   -1.4911   -2.5603 H   0  0  0  0  0  0  0  0  0  0  0  0
   14.4550   -2.4699   -1.2296 H   0  0  0  0  0  0  0  0  0  0  0  0
   13.8168   -2.7569   -2.8419 H   0  0  0  0  0  0  0  0  0  0  0  0
   17.2496   -1.0724   -6.9397 H   0  0  0  0  0  0  0  0  0  0  0  0
   18.1558    0.9603   -7.2665 H   0  0  0  0  0  0  0  0  0  0  0  0
   18.5193    2.4941   -4.8308 H   0  0  0  0  0  0  0  0  0  0  0  0
   19.3086    2.7296   -6.3868 H   0  0  0  0  0  0  0  0  0  0  0  0
   16.2788    3.5374   -4.3795 H   0  0  0  0  0  0  0  0  0  0  0  0
   14.7717    5.3843   -4.8472 H   0  0  0  0  0  0  0  0  0  0  0  0
   14.4629    6.1130   -9.8007 H   0  0  0  0  0  0  0  0  0  0  0  0
   12.7419    6.5069   -9.7131 H   0  0  0  0  0  0  0  0  0  0  0  0
   13.3913    5.2074   -8.7147 H   0  0  0  0  0  0  0  0  0  0  0  0
   13.1484   10.0490   -6.7817 H   0  0  0  0  0  0  0  0  0  0  0  0
   16.8606    6.1564   -8.5175 H   0  0  0  0  0  0  0  0  0  0  0  0
   18.3660    4.2917   -8.0509 H   0  0  0  0  0  0  0  0  0  0  0  0
   15.2726    0.5948   -7.8371 H   0  0  0  0  0  0  0  0  0  0  0  0
   15.2370   -1.1346   -8.1720 H   0  0  0  0  0  0  0  0  0  0  0  0
   13.7143    0.3920   -6.0439 H   0  0  0  0  0  0  0  0  0  0  0  0
   12.0845   -0.7942   -6.8355 H   0  0  0  0  0  0  0  0  0  0  0  0
   13.9854   -2.5708   -5.5882 H   0  0  0  0  0  0  0  0  0  0  0  0
   14.0916   -1.2220   -4.4651 H   0  0  0  0  0  0  0  0  0  0  0  0
  1 34  1  0  0  0  0
  1 35  1  0  0  0  0
  1 36  1  0  0  0  0
  1  2  1  0  0  0  0
  2  3  2  0  0  0  0
  2  4  1  0  0  0  0
  4 37  1  0  0  0  0
  5  4  1  0  0  0  0
  5 38  1  0  0  0  0
  5  6  1  0  0  0  0
  5 10  1  0  0  0  0
  6  7  1  0  0  0  0
  6  8  1  0  0  0  0
  6  9  1  0  0  0  0
  7 39  1  0  0  0  0
  7 40  1  0  0  0  0
  7 41  1  0  0  0  0
  8 42  1  0  0  0  0
  8 43  1  0  0  0  0
  8 44  1  0  0  0  0
  9 45  1  0  0  0  0
  9 46  1  0  0  0  0
  9 47  1  0  0  0  0
 10 11  2  0  0  0  0
 10 12  1  0  0  0  0
 12 33  1  0  0  0  0
 13 12  1  0  0  0  0
 13 30  1  0  0  0  0
 13 48  1  0  0  0  0
 13 14  1  0  0  0  0
 14 15  2  0  0  0  0
 14 16  1  0  0  0  0
 16 49  1  0  0  0  0
 16 17  1  0  0  0  0
 17 50  1  0  0  0  0
 17 51  1  0  0  0  0
 17 18  1  0  0  0  0
 18 19  1  0  0  0  0
 18 29  2  0  0  0  0
 19 52  1  0  0  0  0
 19 20  2  0  0  0  0
 20 53  1  0  0  0  0
 20 21  1  0  0  0  0
 21 28  2  0  0  0  0
 21 22  1  0  0  0  0
 22 23  2  0  0  0  0
 22 27  1  0  0  0  0
 23 24  1  0  0  0  0
 23 25  1  0  0  0  0
 24 54  1  0  0  0  0
 24 55  1  0  0  0  0
 24 56  1  0  0  0  0
 25 26  2  0  0  0  0
 26 57  1  0  0  0  0
 26 27  1  0  0  0  0
 28 58  1  0  0  0  0
 28 29  1  0  0  0  0
 29 59  1  0  0  0  0
 31 30  1  0  0  0  0
 30 60  1  0  0  0  0
 30 61  1  0  0  0  0
 31 33  1  0  0  0  0
 31 62  1  0  0  0  0
 31 32  1  0  0  0  0
 32 63  1  0  0  0  0
 33 64  1  0  0  0  0
 33 65  1  0  0  0  0
M  ZZC   1 c1
M  ZZC   2 c2
M  ZZC   3 o1
M  ZZC   4 n1
M  ZZC   5 c3
M  ZZC   6 c4
M  ZZC   7 c5
M  ZZC   8 c6
M  ZZC   9 c7
M  ZZC  10 c8
M  ZZC  11 o2
M  ZZC  12 n2
M  ZZC  13 c9
M  ZZC  14 c10
M  ZZC  15 o3
M  ZZC  16 n3
M  ZZC  17 c11
M  ZZC  18 c12
M  ZZC  19 c13
M  ZZC  20 c14
M  ZZC  21 c15
M  ZZC  22 c16
M  ZZC  23 c17
M  ZZC  24 c18
M  ZZC  25 n4
M  ZZC  26 c19
M  ZZC  27 s1
M  ZZC  28 c20
M  ZZC  29 c21
M  ZZC  30 c22
M  ZZC  31 c23
M  ZZC  32 o4
M  ZZC  33 c24
M  ZZC  34 h11
M  ZZC  35 h12
M  ZZC  36 h13
M  ZZC  37 h01
M  ZZC  38 h31
M  ZZC  39 h51
M  ZZC  40 h52
M  ZZC  41 h53
M  ZZC  42 h61
M  ZZC  43 h62
M  ZZC  44 h63
M  ZZC  45 h71
M  ZZC  46 h72
M  ZZC  47 h73
M  ZZC  48 h91
M  ZZC  49 h02
M  ZZC  50 h111
M  ZZC  51 h112
M  ZZC  52 h131
M  ZZC  53 h141
M  ZZC  54 h181
M  ZZC  55 h182
M  ZZC  56 h183
M  ZZC  57 h191
M  ZZC  58 h201
M  ZZC  59 h211
M  ZZC  60 h221
M  ZZC  61 h222
M  ZZC  62 h231
M  ZZC  63 h41
M  ZZC  64 h241
M  ZZC  65 h242
M  ZZM   1 1
M  ZZI   1 111
M  ZZM   2 3
M  ZZI   2 121
M  ZZM   3 7
M  ZZI   3 81
M  ZZM   4 10
M  ZZI   4 211
M  ZZM   5 1
M  ZZI   5 113
M  ZZM   6 1
M  ZZI   6 110
M  ZZM   7 1
M  ZZI   7 111
M  ZZM   8 1
M  ZZI   8 111
M  ZZM   9 1
M  ZZI   9 111
M  ZZM  10 3
M  ZZI  10 121
M  ZZM  11 7
M  ZZI  11 81
M  ZZM  12 10
M  ZZI  12 192
M  ZZM  13 1
M  ZZI  13 113
M  ZZM  14 3
M  ZZI  14 121
M  ZZM  15 7
M  ZZI  15 81
M  ZZM  16 10
M  ZZI  16 211
M  ZZM  17 1
M  ZZI  17 112
M  ZZM  18 37
M  ZZI  18 124
M  ZZM  19 37
M  ZZI  19 125
M  ZZM  20 37
M  ZZI  20 125
M  ZZM  21 37
M  ZZI  21 124
M  ZZM  22 63
M  ZZI  22 104
M  ZZM  23 64
M  ZZI  23 105
M  ZZM  24 1
M  ZZI  24 111
M  ZZM  25 66
M  ZZI  25 222
M  ZZM  26 63
M  ZZI  26 104
M  ZZM  27 44
M  ZZI  27 248
M  ZZM  28 37
M  ZZI  28 125
M  ZZM  29 37
M  ZZI  29 125
M  ZZM  30 1
M  ZZI  30 112
M  ZZM  31 1
M  ZZI  31 113
M  ZZM  32 6
M  ZZI  32 60
M  ZZM  33 1
M  ZZI  33 112
M  ZZM  34 5
M  ZZI  34 1
M  ZZM  35 5
M  ZZI  35 1
M  ZZM  36 5
M  ZZI  36 1
M  ZZM  37 28
M  ZZI  37 11
M  ZZM  38 5
M  ZZI  38 1
M  ZZM  39 5
M  ZZI  39 1
M  ZZM  40 5
M  ZZI  40 1
M  ZZM  41 5
M  ZZI  41 1
M  ZZM  42 5
M  ZZI  42 1
M  ZZM  43 5
M  ZZI  43 1
M  ZZM  44 5
M  ZZI  44 1
M  ZZM  45 5
M  ZZI  45 1
M  ZZM  46 5
M  ZZI  46 1
M  ZZM  47 5
M  ZZI  47 1
M  ZZM  48 5
M  ZZI  48 1
M  ZZM  49 28
M  ZZI  49 11
M  ZZM  50 5
M  ZZI  50 1
M  ZZM  51 5
M  ZZI  51 1
M  ZZM  52 5
M  ZZI  52 1
M  ZZM  53 5
M  ZZI  53 1
M  ZZM  54 5
M  ZZI  54 1
M  ZZM  55 5
M  ZZI  55 1
M  ZZM  56 5
M  ZZI  56 1
M  ZZM  57 5
M  ZZI  57 1
M  ZZM  58 5
M  ZZI  58 1
M  ZZM  59 5
M  ZZI  59 1
M  ZZM  60 5
M  ZZI  60 1
M  ZZM  61 5
M  ZZI  61 1
M  ZZM  62 5
M  ZZI  62 1
M  ZZM  63 21
M  ZZI  63 20
M  ZZM  64 5
M  ZZI  64 1
M  ZZM  65 5
M  ZZI  65 1
M  END
> <IX>
1

> <NAME>
VHL_4IM0_21.pdb

> <Score>
-5.939605

> <Natom>
65

> <Nflex>
8

> <Hbond>
-5.062577

> <Hphob>
-6.61635

> <VwInt>
-28.02802

> <Dsolv>
22.097339

> <SolEl>
21.944856

> <Eintl>
5.788465

> <RecConf>
ND

> <projPath>
VHL_maps/

> <NAME_>
VHL_4IM0_21.pdb

$$$$
