VHL_4IM0_1.pdb
  MOLSOFT 04032206383D

 65 67  0  0  1  0  0  0  0  0999 V2000
   18.0571   -7.0353   -5.1172 C   0  0  0  0  0  0  0  0  0  0  0  0
   16.9142   -6.0603   -5.0671 C   0  0  0  0  0  0  0  0  0  0  0  0
   15.8382   -6.3324   -5.5710 O   0  0  0  0  0  0  0  0  0  0  0  0
   17.2040   -4.9002   -4.3779 N   0  0  0  0  0  0  0  0  0  0  0  0
   16.2663   -3.7810   -4.2070 C   0  0  1  0  0  0  0  0  0  0  0  0
   15.8564   -3.5635   -2.7186 C   0  0  0  0  0  0  0  0  0  0  0  0
   17.0277   -3.0756   -1.8535 C   0  0  0  0  0  0  0  0  0  0  0  0
   15.3330   -4.8884   -2.1495 C   0  0  0  0  0  0  0  0  0  0  0  0
   14.7208   -2.5386   -2.5824 C   0  0  0  0  0  0  0  0  0  0  0  0
   16.9642   -2.5785   -4.8660 C   0  0  0  0  0  0  0  0  0  0  0  0
   18.1678   -2.3984   -4.7387 O   0  0  0  0  0  0  0  0  0  0  0  0
   16.1911   -1.6743   -5.5906 N   0  0  0  0  0  0  0  0  0  0  0  0
   16.8259   -0.5843   -6.3191 C   0  0  2  0  0  0  0  0  0  0  0  0
   17.3633    0.5065   -5.3951 C   0  0  0  0  0  0  0  0  0  0  0  0
   16.9152    0.7097   -4.2744 O   0  0  0  0  0  0  0  0  0  0  0  0
   18.3252    1.2952   -6.0027 N   0  0  0  0  0  0  0  0  0  0  0  0
   18.6904    2.5970   -5.4798 C   0  0  0  0  0  0  0  0  0  0  0  0
   17.6904    3.6076   -5.9744 C   0  0  0  0  0  0  0  0  0  0  0  0
   16.4446    3.6940   -5.3624 C   0  0  0  0  0  0  0  0  0  0  0  0
   15.4155    4.3866   -5.9605 C   0  0  0  0  0  0  0  0  0  0  0  0
   15.6230    5.0438   -7.1629 C   0  0  0  0  0  0  0  0  0  0  0  0
   14.4816    5.5988   -7.8569 C   0  0  0  0  0  0  0  0  0  0  0  0
   13.4514    4.9384   -8.5106 C   0  0  0  0  0  0  0  0  0  0  0  0
   13.3335    3.4780   -8.7408 C   0  0  0  0  0  0  0  0  0  0  0  0
   12.4373    5.7552   -8.9559 N   0  0  0  0  0  0  0  0  0  0  0  0
   12.7464    7.0067   -8.6964 C   0  0  0  0  0  0  0  0  0  0  0  0
   14.2261    7.2916   -7.9019 S   0  0  0  0  0  0  0  0  0  0  0  0
   16.8997    5.0803   -7.7104 C   0  0  0  0  0  0  0  0  0  0  0  0
   17.9244    4.3515   -7.1278 C   0  0  0  0  0  0  0  0  0  0  0  0
   15.7340   -0.0342   -7.2368 C   0  0  0  0  0  0  0  0  0  0  0  0
   14.4558   -0.3993   -6.5042 C   0  0  1  0  0  0  0  0  0  0  0  0
   13.3412   -0.4559   -7.3901 O   0  0  0  0  0  0  0  0  0  0  0  0
   14.7965   -1.7685   -5.9514 C   0  0  0  0  0  0  0  0  0  0  0  0
   19.0176   -6.5139   -5.1715 H   0  0  0  0  0  0  0  0  0  0  0  0
   17.9561   -7.6667   -6.0046 H   0  0  0  0  0  0  0  0  0  0  0  0
   18.0262   -7.6623   -4.2230 H   0  0  0  0  0  0  0  0  0  0  0  0
   18.1568   -4.7663   -4.0569 H   0  0  0  0  0  0  0  0  0  0  0  0
   15.3671   -4.0228   -4.7673 H   0  0  0  0  0  0  0  0  0  0  0  0
   16.7425   -3.0043   -0.7989 H   0  0  0  0  0  0  0  0  0  0  0  0
   17.3762   -2.0841   -2.1586 H   0  0  0  0  0  0  0  0  0  0  0  0
   17.8778   -3.7534   -1.9076 H   0  0  0  0  0  0  0  0  0  0  0  0
   15.0011   -4.7699   -1.1149 H   0  0  0  0  0  0  0  0  0  0  0  0
   16.0998   -5.6655   -2.1585 H   0  0  0  0  0  0  0  0  0  0  0  0
   14.4814   -5.2643   -2.7253 H   0  0  0  0  0  0  0  0  0  0  0  0
   15.0204   -1.5579   -2.9664 H   0  0  0  0  0  0  0  0  0  0  0  0
   14.4381   -2.3925   -1.5356 H   0  0  0  0  0  0  0  0  0  0  0  0
   13.8299   -2.8365   -3.1425 H   0  0  0  0  0  0  0  0  0  0  0  0
   17.6535   -0.9829   -6.9030 H   0  0  0  0  0  0  0  0  0  0  0  0
   18.6916    1.0222   -6.9102 H   0  0  0  0  0  0  0  0  0  0  0  0
   18.7097    2.5695   -4.3846 H   0  0  0  0  0  0  0  0  0  0  0  0
   19.7009    2.8322   -5.8296 H   0  0  0  0  0  0  0  0  0  0  0  0
   16.2398    3.1497   -4.4453 H   0  0  0  0  0  0  0  0  0  0  0  0
   14.4304    4.3724   -5.5017 H   0  0  0  0  0  0  0  0  0  0  0  0
   12.4552    3.2515   -9.3518 H   0  0  0  0  0  0  0  0  0  0  0  0
   13.2231    2.9361   -7.7976 H   0  0  0  0  0  0  0  0  0  0  0  0
   14.2181    3.0868   -9.2503 H   0  0  0  0  0  0  0  0  0  0  0  0
   12.1040    7.8285   -8.9575 H   0  0  0  0  0  0  0  0  0  0  0  0
   17.0896    5.6323   -8.6267 H   0  0  0  0  0  0  0  0  0  0  0  0
   18.8956    4.3239   -7.6132 H   0  0  0  0  0  0  0  0  0  0  0  0
   15.8046    1.0414   -7.4299 H   0  0  0  0  0  0  0  0  0  0  0  0
   15.7640   -0.5320   -8.2136 H   0  0  0  0  0  0  0  0  0  0  0  0
   14.2519    0.3220   -5.7035 H   0  0  0  0  0  0  0  0  0  0  0  0
   12.5334   -0.3327   -6.8610 H   0  0  0  0  0  0  0  0  0  0  0  0
   14.7215   -2.5281   -6.7335 H   0  0  0  0  0  0  0  0  0  0  0  0
   14.1527   -2.0670   -5.1252 H   0  0  0  0  0  0  0  0  0  0  0  0
  1 34  1  0  0  0  0
  1 35  1  0  0  0  0
  1 36  1  0  0  0  0
  1  2  1  0  0  0  0
  2  3  2  0  0  0  0
  2  4  1  0  0  0  0
  4 37  1  0  0  0  0
  5  4  1  0  0  0  0
  5 38  1  0  0  0  0
  5  6  1  0  0  0  0
  5 10  1  0  0  0  0
  6  7  1  0  0  0  0
  6  8  1  0  0  0  0
  6  9  1  0  0  0  0
  7 39  1  0  0  0  0
  7 40  1  0  0  0  0
  7 41  1  0  0  0  0
  8 42  1  0  0  0  0
  8 43  1  0  0  0  0
  8 44  1  0  0  0  0
  9 45  1  0  0  0  0
  9 46  1  0  0  0  0
  9 47  1  0  0  0  0
 10 11  2  0  0  0  0
 10 12  1  0  0  0  0
 12 33  1  0  0  0  0
 13 12  1  0  0  0  0
 13 30  1  0  0  0  0
 13 48  1  0  0  0  0
 13 14  1  0  0  0  0
 14 15  2  0  0  0  0
 14 16  1  0  0  0  0
 16 49  1  0  0  0  0
 16 17  1  0  0  0  0
 17 50  1  0  0  0  0
 17 51  1  0  0  0  0
 17 18  1  0  0  0  0
 18 19  1  0  0  0  0
 18 29  2  0  0  0  0
 19 52  1  0  0  0  0
 19 20  2  0  0  0  0
 20 53  1  0  0  0  0
 20 21  1  0  0  0  0
 21 28  2  0  0  0  0
 21 22  1  0  0  0  0
 22 23  2  0  0  0  0
 22 27  1  0  0  0  0
 23 24  1  0  0  0  0
 23 25  1  0  0  0  0
 24 54  1  0  0  0  0
 24 55  1  0  0  0  0
 24 56  1  0  0  0  0
 25 26  2  0  0  0  0
 26 57  1  0  0  0  0
 26 27  1  0  0  0  0
 28 58  1  0  0  0  0
 28 29  1  0  0  0  0
 29 59  1  0  0  0  0
 31 30  1  0  0  0  0
 30 60  1  0  0  0  0
 30 61  1  0  0  0  0
 31 33  1  0  0  0  0
 31 62  1  0  0  0  0
 31 32  1  0  0  0  0
 32 63  1  0  0  0  0
 33 64  1  0  0  0  0
 33 65  1  0  0  0  0
M  ZZC   1 c1
M  ZZC   2 c2
M  ZZC   3 o1
M  ZZC   4 n1
M  ZZC   5 c3
M  ZZC   6 c4
M  ZZC   7 c5
M  ZZC   8 c6
M  ZZC   9 c7
M  ZZC  10 c8
M  ZZC  11 o2
M  ZZC  12 n2
M  ZZC  13 c9
M  ZZC  14 c10
M  ZZC  15 o3
M  ZZC  16 n3
M  ZZC  17 c11
M  ZZC  18 c12
M  ZZC  19 c13
M  ZZC  20 c14
M  ZZC  21 c15
M  ZZC  22 c16
M  ZZC  23 c17
M  ZZC  24 c18
M  ZZC  25 n4
M  ZZC  26 c19
M  ZZC  27 s1
M  ZZC  28 c20
M  ZZC  29 c21
M  ZZC  30 c22
M  ZZC  31 c23
M  ZZC  32 o4
M  ZZC  33 c24
M  ZZC  34 h11
M  ZZC  35 h12
M  ZZC  36 h13
M  ZZC  37 h01
M  ZZC  38 h31
M  ZZC  39 h51
M  ZZC  40 h52
M  ZZC  41 h53
M  ZZC  42 h61
M  ZZC  43 h62
M  ZZC  44 h63
M  ZZC  45 h71
M  ZZC  46 h72
M  ZZC  47 h73
M  ZZC  48 h91
M  ZZC  49 h02
M  ZZC  50 h111
M  ZZC  51 h112
M  ZZC  52 h131
M  ZZC  53 h141
M  ZZC  54 h181
M  ZZC  55 h182
M  ZZC  56 h183
M  ZZC  57 h191
M  ZZC  58 h201
M  ZZC  59 h211
M  ZZC  60 h221
M  ZZC  61 h222
M  ZZC  62 h231
M  ZZC  63 h41
M  ZZC  64 h241
M  ZZC  65 h242
M  ZZM   1 1
M  ZZI   1 111
M  ZZM   2 3
M  ZZI   2 121
M  ZZM   3 7
M  ZZI   3 81
M  ZZM   4 10
M  ZZI   4 211
M  ZZM   5 1
M  ZZI   5 113
M  ZZM   6 1
M  ZZI   6 110
M  ZZM   7 1
M  ZZI   7 111
M  ZZM   8 1
M  ZZI   8 111
M  ZZM   9 1
M  ZZI   9 111
M  ZZM  10 3
M  ZZI  10 121
M  ZZM  11 7
M  ZZI  11 81
M  ZZM  12 10
M  ZZI  12 192
M  ZZM  13 1
M  ZZI  13 113
M  ZZM  14 3
M  ZZI  14 121
M  ZZM  15 7
M  ZZI  15 81
M  ZZM  16 10
M  ZZI  16 211
M  ZZM  17 1
M  ZZI  17 112
M  ZZM  18 37
M  ZZI  18 124
M  ZZM  19 37
M  ZZI  19 125
M  ZZM  20 37
M  ZZI  20 125
M  ZZM  21 37
M  ZZI  21 124
M  ZZM  22 63
M  ZZI  22 104
M  ZZM  23 64
M  ZZI  23 105
M  ZZM  24 1
M  ZZI  24 111
M  ZZM  25 66
M  ZZI  25 222
M  ZZM  26 63
M  ZZI  26 104
M  ZZM  27 44
M  ZZI  27 248
M  ZZM  28 37
M  ZZI  28 125
M  ZZM  29 37
M  ZZI  29 125
M  ZZM  30 1
M  ZZI  30 112
M  ZZM  31 1
M  ZZI  31 113
M  ZZM  32 6
M  ZZI  32 60
M  ZZM  33 1
M  ZZI  33 112
M  ZZM  34 5
M  ZZI  34 1
M  ZZM  35 5
M  ZZI  35 1
M  ZZM  36 5
M  ZZI  36 1
M  ZZM  37 28
M  ZZI  37 11
M  ZZM  38 5
M  ZZI  38 1
M  ZZM  39 5
M  ZZI  39 1
M  ZZM  40 5
M  ZZI  40 1
M  ZZM  41 5
M  ZZI  41 1
M  ZZM  42 5
M  ZZI  42 1
M  ZZM  43 5
M  ZZI  43 1
M  ZZM  44 5
M  ZZI  44 1
M  ZZM  45 5
M  ZZI  45 1
M  ZZM  46 5
M  ZZI  46 1
M  ZZM  47 5
M  ZZI  47 1
M  ZZM  48 5
M  ZZI  48 1
M  ZZM  49 28
M  ZZI  49 11
M  ZZM  50 5
M  ZZI  50 1
M  ZZM  51 5
M  ZZI  51 1
M  ZZM  52 5
M  ZZI  52 1
M  ZZM  53 5
M  ZZI  53 1
M  ZZM  54 5
M  ZZI  54 1
M  ZZM  55 5
M  ZZI  55 1
M  ZZM  56 5
M  ZZI  56 1
M  ZZM  57 5
M  ZZI  57 1
M  ZZM  58 5
M  ZZI  58 1
M  ZZM  59 5
M  ZZI  59 1
M  ZZM  60 5
M  ZZI  60 1
M  ZZM  61 5
M  ZZI  61 1
M  ZZM  62 5
M  ZZI  62 1
M  ZZM  63 21
M  ZZI  63 20
M  ZZM  64 5
M  ZZI  64 1
M  ZZM  65 5
M  ZZI  65 1
M  END
> <IX>
1

> <NAME>
VHL_4IM0_1.pdb

> <Score>
-7.265659

> <Natom>
65

> <Nflex>
8

> <Hbond>
-6.26948

> <Hphob>
-6.825284

> <VwInt>
-28.3188

> <Dsolv>
21.764001

> <SolEl>
23.908756

> <Eintl>
7.64181

> <RecConf>
ND

> <projPath>
VHL_maps/

> <NAME_>
VHL_4IM0_1.pdb

$$$$
