VHL_1ERR_19.pdb
  MOLSOFT 04032206373D

 68 70  0  0  1  0  0  0  0  0999 V2000
   16.6975   -6.1411   -5.9016 O   0  0  0  0  0  0  0  0  0  0  0  0
   17.7296   -5.5436   -5.6372 C   0  0  0  0  0  0  0  0  0  0  0  0
   17.8031   -4.2533   -5.1408 N   0  0  0  0  0  0  0  0  0  0  0  0
   16.6512   -3.3654   -4.9601 C   0  0  1  0  0  0  0  0  0  0  0  0
   15.9956   -3.4649   -3.5413 C   0  0  0  0  0  0  0  0  0  0  0  0
   16.8633   -2.8063   -2.4571 C   0  0  0  0  0  0  0  0  0  0  0  0
   15.7618   -4.9250   -3.1224 C   0  0  0  0  0  0  0  0  0  0  0  0
   14.6194   -2.7841   -3.5473 C   0  0  0  0  0  0  0  0  0  0  0  0
   17.1798   -1.9505   -5.2893 C   0  0  0  0  0  0  0  0  0  0  0  0
   18.2875   -1.6009   -4.9078 O   0  0  0  0  0  0  0  0  0  0  0  0
   16.3701   -1.0581   -5.9956 N   0  0  0  0  0  0  0  0  0  0  0  0
   16.8514    0.2977   -6.2880 C   0  0  2  0  0  0  0  0  0  0  0  0
   16.7808    1.2727   -5.1117 C   0  0  0  0  0  0  0  0  0  0  0  0
   17.4806    2.2748   -5.0798 O   0  0  0  0  0  0  0  0  0  0  0  0
   15.7527    1.0319   -4.2198 N   0  0  0  0  0  0  0  0  0  0  0  0
   15.3997    1.9601   -3.1575 C   0  0  1  0  0  0  0  0  0  0  0  0
   14.2573    2.8704   -3.6076 C   0  0  0  0  0  0  0  0  0  0  0  0
   15.0800    1.2232   -1.8731 C   0  0  0  0  0  0  0  0  0  0  0  0
   13.9262    0.4543   -1.7163 C   0  0  0  0  0  0  0  0  0  0  0  0
   13.6659   -0.2072   -0.5273 C   0  0  0  0  0  0  0  0  0  0  0  0
   14.5518   -0.1136    0.5383 C   0  0  0  0  0  0  0  0  0  0  0  0
   14.2886   -0.8084    1.7843 C   0  0  0  0  0  0  0  0  0  0  0  0
   14.5463   -2.1198    2.1495 C   0  0  0  0  0  0  0  0  0  0  0  0
   15.2307   -3.1408    1.3283 C   0  0  0  0  0  0  0  0  0  0  0  0
   14.1162   -2.4703    3.4141 N   0  0  0  0  0  0  0  0  0  0  0  0
   13.5830   -1.4217    4.0008 C   0  0  0  0  0  0  0  0  0  0  0  0
   13.5714    0.0294    3.0986 S   0  0  0  0  0  0  0  0  0  0  0  0
   15.7077    0.6390    0.3863 C   0  0  0  0  0  0  0  0  0  0  0  0
   15.9688    1.2933   -0.8039 C   0  0  0  0  0  0  0  0  0  0  0  0
   15.9395    0.8128   -7.3962 C   0  0  0  0  0  0  0  0  0  0  0  0
   15.3571   -0.4413   -8.0102 C   0  0  1  0  0  0  0  0  0  0  0  0
   16.2344   -0.9679   -9.0162 O   0  0  0  0  0  0  0  0  0  0  0  0
   15.2470   -1.4060   -6.8427 C   0  0  0  0  0  0  0  0  0  0  0  0
   19.0714   -6.1939   -5.8455 C   0  0  0  0  0  0  0  0  0  0  0  0
   18.7178   -3.8589   -4.9488 H   0  0  0  0  0  0  0  0  0  0  0  0
   15.9340   -3.6668   -5.7161 H   0  0  0  0  0  0  0  0  0  0  0  0
   17.8718   -3.2278   -2.4400 H   0  0  0  0  0  0  0  0  0  0  0  0
   16.4354   -2.9549   -1.4617 H   0  0  0  0  0  0  0  0  0  0  0  0
   16.9550   -1.7258   -2.6013 H   0  0  0  0  0  0  0  0  0  0  0  0
   15.1482   -5.4538   -3.8539 H   0  0  0  0  0  0  0  0  0  0  0  0
   15.2372   -4.9898   -2.1634 H   0  0  0  0  0  0  0  0  0  0  0  0
   16.6982   -5.4771   -3.0059 H   0  0  0  0  0  0  0  0  0  0  0  0
   13.9553   -3.2282   -4.2944 H   0  0  0  0  0  0  0  0  0  0  0  0
   14.6915   -1.7200   -3.7668 H   0  0  0  0  0  0  0  0  0  0  0  0
   14.1213   -2.8751   -2.5767 H   0  0  0  0  0  0  0  0  0  0  0  0
   17.8934    0.2364   -6.6195 H   0  0  0  0  0  0  0  0  0  0  0  0
   15.1958    0.1961   -4.3425 H   0  0  0  0  0  0  0  0  0  0  0  0
   16.2662    2.6062   -2.9794 H   0  0  0  0  0  0  0  0  0  0  0  0
   14.5510    3.4609   -4.4812 H   0  0  0  0  0  0  0  0  0  0  0  0
   13.9642    3.5650   -2.8136 H   0  0  0  0  0  0  0  0  0  0  0  0
   13.3702    2.2990   -3.8962 H   0  0  0  0  0  0  0  0  0  0  0  0
   13.2154    0.3578   -2.5306 H   0  0  0  0  0  0  0  0  0  0  0  0
   12.7596   -0.7995   -0.4358 H   0  0  0  0  0  0  0  0  0  0  0  0
   14.6745   -3.3306    0.4086 H   0  0  0  0  0  0  0  0  0  0  0  0
   15.3036   -4.0871    1.8716 H   0  0  0  0  0  0  0  0  0  0  0  0
   16.2407   -2.8182    1.0607 H   0  0  0  0  0  0  0  0  0  0  0  0
   13.1782   -1.4644    5.0015 H   0  0  0  0  0  0  0  0  0  0  0  0
   16.4223    0.7174    1.2005 H   0  0  0  0  0  0  0  0  0  0  0  0
   16.8862    1.8689   -0.8894 H   0  0  0  0  0  0  0  0  0  0  0  0
   15.1330    1.4343   -6.9903 H   0  0  0  0  0  0  0  0  0  0  0  0
   16.4939    1.4184   -8.1193 H   0  0  0  0  0  0  0  0  0  0  0  0
   14.3892   -0.2413   -8.4668 H   0  0  0  0  0  0  0  0  0  0  0  0
   17.1461   -0.9176   -8.6706 H   0  0  0  0  0  0  0  0  0  0  0  0
   15.2911   -2.4463   -7.1714 H   0  0  0  0  0  0  0  0  0  0  0  0
   14.3321   -1.2311   -6.2670 H   0  0  0  0  0  0  0  0  0  0  0  0
   19.1376   -6.5573   -6.8743 H   0  0  0  0  0  0  0  0  0  0  0  0
   19.1755   -7.0378   -5.1589 H   0  0  0  0  0  0  0  0  0  0  0  0
   19.8906   -5.4903   -5.6828 H   0  0  0  0  0  0  0  0  0  0  0  0
  1  2  2  0  0  0  0
  2  3  1  0  0  0  0
  2 34  1  0  0  0  0
  4  3  1  0  0  0  0
  3 35  1  0  0  0  0
  4  5  1  0  0  0  0
  4 36  1  0  0  0  0
  4  9  1  0  0  0  0
  5  6  1  0  0  0  0
  5  7  1  0  0  0  0
  5  8  1  0  0  0  0
  6 37  1  0  0  0  0
  6 38  1  0  0  0  0
  6 39  1  0  0  0  0
  7 40  1  0  0  0  0
  7 41  1  0  0  0  0
  7 42  1  0  0  0  0
  8 43  1  0  0  0  0
  8 44  1  0  0  0  0
  8 45  1  0  0  0  0
  9 10  2  0  0  0  0
  9 11  1  0  0  0  0
 11 33  1  0  0  0  0
 12 11  1  0  0  0  0
 12 30  1  0  0  0  0
 12 46  1  0  0  0  0
 12 13  1  0  0  0  0
 13 14  2  0  0  0  0
 13 15  1  0  0  0  0
 15 47  1  0  0  0  0
 16 15  1  0  0  0  0
 16 48  1  0  0  0  0
 16 17  1  0  0  0  0
 16 18  1  0  0  0  0
 17 49  1  0  0  0  0
 17 50  1  0  0  0  0
 17 51  1  0  0  0  0
 18 19  1  0  0  0  0
 18 29  2  0  0  0  0
 19 52  1  0  0  0  0
 19 20  2  0  0  0  0
 20 53  1  0  0  0  0
 20 21  1  0  0  0  0
 21 28  2  0  0  0  0
 21 22  1  0  0  0  0
 22 23  2  0  0  0  0
 22 27  1  0  0  0  0
 23 24  1  0  0  0  0
 23 25  1  0  0  0  0
 24 54  1  0  0  0  0
 24 55  1  0  0  0  0
 24 56  1  0  0  0  0
 25 26  2  0  0  0  0
 26 57  1  0  0  0  0
 26 27  1  0  0  0  0
 28 58  1  0  0  0  0
 28 29  1  0  0  0  0
 29 59  1  0  0  0  0
 31 30  1  0  0  0  0
 30 60  1  0  0  0  0
 30 61  1  0  0  0  0
 31 33  1  0  0  0  0
 31 62  1  0  0  0  0
 31 32  1  0  0  0  0
 32 63  1  0  0  0  0
 33 64  1  0  0  0  0
 33 65  1  0  0  0  0
 34 66  1  0  0  0  0
 34 67  1  0  0  0  0
 34 68  1  0  0  0  0
M  ZZC   1 o1
M  ZZC   2 c1
M  ZZC   3 n1
M  ZZC   4 c2
M  ZZC   5 c3
M  ZZC   6 c4
M  ZZC   7 c5
M  ZZC   8 c6
M  ZZC   9 c7
M  ZZC  10 o2
M  ZZC  11 n2
M  ZZC  12 c8
M  ZZC  13 c9
M  ZZC  14 o3
M  ZZC  15 n3
M  ZZC  16 c10
M  ZZC  17 c11
M  ZZC  18 c12
M  ZZC  19 c13
M  ZZC  20 c14
M  ZZC  21 c15
M  ZZC  22 c16
M  ZZC  23 c17
M  ZZC  24 c18
M  ZZC  25 n4
M  ZZC  26 c19
M  ZZC  27 s1
M  ZZC  28 c20
M  ZZC  29 c21
M  ZZC  30 c22
M  ZZC  31 c23
M  ZZC  32 o4
M  ZZC  33 c24
M  ZZC  34 c25
M  ZZC  35 h11
M  ZZC  36 h21
M  ZZC  37 h41
M  ZZC  38 h42
M  ZZC  39 h43
M  ZZC  40 h51
M  ZZC  41 h52
M  ZZC  42 h53
M  ZZC  43 h61
M  ZZC  44 h62
M  ZZC  45 h63
M  ZZC  46 h81
M  ZZC  47 h31
M  ZZC  48 h101
M  ZZC  49 h111
M  ZZC  50 h112
M  ZZC  51 h113
M  ZZC  52 h131
M  ZZC  53 h141
M  ZZC  54 h181
M  ZZC  55 h182
M  ZZC  56 h183
M  ZZC  57 h191
M  ZZC  58 h201
M  ZZC  59 h211
M  ZZC  60 h221
M  ZZC  61 h222
M  ZZC  62 h231
M  ZZC  63 h01
M  ZZC  64 h241
M  ZZC  65 h242
M  ZZC  66 h251
M  ZZC  67 h252
M  ZZC  68 h253
M  ZZM   1 7
M  ZZI   1 81
M  ZZM   2 3
M  ZZI   2 121
M  ZZM   3 10
M  ZZI   3 211
M  ZZM   4 1
M  ZZI   4 113
M  ZZM   5 1
M  ZZI   5 110
M  ZZM   6 1
M  ZZI   6 111
M  ZZM   7 1
M  ZZI   7 111
M  ZZM   8 1
M  ZZI   8 111
M  ZZM   9 3
M  ZZI   9 121
M  ZZM  10 7
M  ZZI  10 81
M  ZZM  11 10
M  ZZI  11 192
M  ZZM  12 1
M  ZZI  12 113
M  ZZM  13 3
M  ZZI  13 121
M  ZZM  14 7
M  ZZI  14 81
M  ZZM  15 10
M  ZZI  15 211
M  ZZM  16 1
M  ZZI  16 113
M  ZZM  17 1
M  ZZI  17 111
M  ZZM  18 37
M  ZZI  18 124
M  ZZM  19 37
M  ZZI  19 125
M  ZZM  20 37
M  ZZI  20 125
M  ZZM  21 37
M  ZZI  21 124
M  ZZM  22 63
M  ZZI  22 104
M  ZZM  23 64
M  ZZI  23 105
M  ZZM  24 1
M  ZZI  24 111
M  ZZM  25 66
M  ZZI  25 222
M  ZZM  26 63
M  ZZI  26 104
M  ZZM  27 44
M  ZZI  27 248
M  ZZM  28 37
M  ZZI  28 125
M  ZZM  29 37
M  ZZI  29 125
M  ZZM  30 1
M  ZZI  30 112
M  ZZM  31 1
M  ZZI  31 113
M  ZZM  32 6
M  ZZI  32 60
M  ZZM  33 1
M  ZZI  33 112
M  ZZM  34 1
M  ZZI  34 111
M  ZZM  35 28
M  ZZI  35 11
M  ZZM  36 5
M  ZZI  36 1
M  ZZM  37 5
M  ZZI  37 1
M  ZZM  38 5
M  ZZI  38 1
M  ZZM  39 5
M  ZZI  39 1
M  ZZM  40 5
M  ZZI  40 1
M  ZZM  41 5
M  ZZI  41 1
M  ZZM  42 5
M  ZZI  42 1
M  ZZM  43 5
M  ZZI  43 1
M  ZZM  44 5
M  ZZI  44 1
M  ZZM  45 5
M  ZZI  45 1
M  ZZM  46 5
M  ZZI  46 1
M  ZZM  47 28
M  ZZI  47 11
M  ZZM  48 5
M  ZZI  48 1
M  ZZM  49 5
M  ZZI  49 1
M  ZZM  50 5
M  ZZI  50 1
M  ZZM  51 5
M  ZZI  51 1
M  ZZM  52 5
M  ZZI  52 1
M  ZZM  53 5
M  ZZI  53 1
M  ZZM  54 5
M  ZZI  54 1
M  ZZM  55 5
M  ZZI  55 1
M  ZZM  56 5
M  ZZI  56 1
M  ZZM  57 5
M  ZZI  57 1
M  ZZM  58 5
M  ZZI  58 1
M  ZZM  59 5
M  ZZI  59 1
M  ZZM  60 5
M  ZZI  60 1
M  ZZM  61 5
M  ZZI  61 1
M  ZZM  62 5
M  ZZI  62 1
M  ZZM  63 21
M  ZZI  63 20
M  ZZM  64 5
M  ZZI  64 1
M  ZZM  65 5
M  ZZI  65 1
M  ZZM  66 5
M  ZZI  66 1
M  ZZM  67 5
M  ZZI  67 1
M  ZZM  68 5
M  ZZI  68 1
M  END
> <IX>
1

> <NAME>
VHL_1ERR_19.pdb

> <Score>
-25.404916

> <Natom>
68

> <Nflex>
8

> <Hbond>
-7.864396

> <Hphob>
-6.843771

> <VwInt>
-27.57812

> <Dsolv>
17.303251

> <SolEl>
9.074568

> <Eintl>
4.814665

> <RecConf>
ND

> <projPath>
VHL_maps/

> <NAME_>
VHL_1ERR_19.pdb

$$$$
