VHL_1EJ1_18.pdb
  MOLSOFT 04032206373D

 65 67  0  0  1  0  0  0  0  0999 V2000
   13.0006   -0.6037   -0.2942 C   0  0  0  0  0  0  0  0  0  0  0  0
   14.3099   -0.8295   -0.9974 C   0  0  0  0  0  0  0  0  0  0  0  0
   15.3262   -0.2481   -0.6485 O   0  0  0  0  0  0  0  0  0  0  0  0
   14.2376   -1.7237   -2.0480 N   0  0  0  0  0  0  0  0  0  0  0  0
   15.3978   -2.0349   -2.8865 C   0  0  1  0  0  0  0  0  0  0  0  0
   15.9618   -3.4686   -2.6477 C   0  0  0  0  0  0  0  0  0  0  0  0
   16.9254   -3.8868   -3.7710 C   0  0  0  0  0  0  0  0  0  0  0  0
   16.7357   -3.4747   -1.3201 C   0  0  0  0  0  0  0  0  0  0  0  0
   14.8586   -4.5288   -2.5490 C   0  0  0  0  0  0  0  0  0  0  0  0
   14.9861   -1.7594   -4.3442 C   0  0  0  0  0  0  0  0  0  0  0  0
   14.0123   -2.3040   -4.8485 O   0  0  0  0  0  0  0  0  0  0  0  0
   15.7786   -0.8526   -5.0518 N   0  0  0  0  0  0  0  0  0  0  0  0
   15.5401   -0.5410   -6.4564 C   0  0  1  0  0  0  0  0  0  0  0  0
   14.4846    0.5605   -6.6250 C   0  0  0  0  0  0  0  0  0  0  0  0
   13.6652    0.8322   -5.7580 O   0  0  0  0  0  0  0  0  0  0  0  0
   14.4935    1.1665   -7.8709 N   0  0  0  0  0  0  0  0  0  0  0  0
   13.5064    2.1495   -8.2619 C   0  0  0  0  0  0  0  0  0  0  0  0
   13.8647    3.5846   -7.9810 C   0  0  0  0  0  0  0  0  0  0  0  0
   13.5263    4.5554   -8.9153 C   0  0  0  0  0  0  0  0  0  0  0  0
   13.6331    5.9042   -8.6247 C   0  0  0  0  0  0  0  0  0  0  0  0
   14.0907    6.3181   -7.3789 C   0  0  0  0  0  0  0  0  0  0  0  0
   14.0712    7.7221   -6.9925 C   0  0  0  0  0  0  0  0  0  0  0  0
   13.4713    8.3368   -5.8997 C   0  0  0  0  0  0  0  0  0  0  0  0
   12.6436    7.6846   -4.8554 C   0  0  0  0  0  0  0  0  0  0  0  0
   13.6716    9.7011   -5.8145 N   0  0  0  0  0  0  0  0  0  0  0  0
   14.3908   10.1069   -6.8368 C   0  0  0  0  0  0  0  0  0  0  0  0
   14.8753    8.9028   -7.9490 S   0  0  0  0  0  0  0  0  0  0  0  0
   14.5090    5.3488   -6.4731 C   0  0  0  0  0  0  0  0  0  0  0  0
   14.3909    4.0016   -6.7635 C   0  0  0  0  0  0  0  0  0  0  0  0
   16.9198   -0.1259   -6.9408 C   0  0  0  0  0  0  0  0  0  0  0  0
   17.5394    0.5791   -5.7481 C   0  0  2  0  0  0  0  0  0  0  0  0
   18.9646    0.4807   -5.7832 O   0  0  0  0  0  0  0  0  0  0  0  0
   16.9684   -0.1737   -4.5587 C   0  0  0  0  0  0  0  0  0  0  0  0
   12.2234   -1.2732   -0.6685 H   0  0  0  0  0  0  0  0  0  0  0  0
   12.6849    0.4310   -0.4547 H   0  0  0  0  0  0  0  0  0  0  0  0
   13.1301   -0.7842    0.7768 H   0  0  0  0  0  0  0  0  0  0  0  0
   13.3450   -2.1397   -2.2948 H   0  0  0  0  0  0  0  0  0  0  0  0
   16.1781   -1.3262   -2.6075 H   0  0  0  0  0  0  0  0  0  0  0  0
   16.4282   -3.9410   -4.7441 H   0  0  0  0  0  0  0  0  0  0  0  0
   17.3486   -4.8785   -3.5842 H   0  0  0  0  0  0  0  0  0  0  0  0
   17.7644   -3.1915   -3.8627 H   0  0  0  0  0  0  0  0  0  0  0  0
   17.5877   -2.7876   -1.3475 H   0  0  0  0  0  0  0  0  0  0  0  0
   17.1241   -4.4679   -1.0875 H   0  0  0  0  0  0  0  0  0  0  0  0
   16.1012   -3.1813   -0.4782 H   0  0  0  0  0  0  0  0  0  0  0  0
   14.2687   -4.3957   -1.6401 H   0  0  0  0  0  0  0  0  0  0  0  0
   15.2755   -5.5400   -2.5061 H   0  0  0  0  0  0  0  0  0  0  0  0
   14.1827   -4.4925   -3.4047 H   0  0  0  0  0  0  0  0  0  0  0  0
   15.1781   -1.4292   -6.9877 H   0  0  0  0  0  0  0  0  0  0  0  0
   15.1345    0.8518   -8.5876 H   0  0  0  0  0  0  0  0  0  0  0  0
   13.3707    2.0272   -9.3392 H   0  0  0  0  0  0  0  0  0  0  0  0
   12.5594    1.9134   -7.7709 H   0  0  0  0  0  0  0  0  0  0  0  0
   13.1244    4.2567   -9.8768 H   0  0  0  0  0  0  0  0  0  0  0  0
   13.3037    6.6270   -9.3656 H   0  0  0  0  0  0  0  0  0  0  0  0
   12.2945    8.4161   -4.1205 H   0  0  0  0  0  0  0  0  0  0  0  0
   13.2131    6.9237   -4.3199 H   0  0  0  0  0  0  0  0  0  0  0  0
   11.7730    7.1870   -5.2897 H   0  0  0  0  0  0  0  0  0  0  0  0
   14.6616   11.1442   -6.9748 H   0  0  0  0  0  0  0  0  0  0  0  0
   14.8920    5.6368   -5.4990 H   0  0  0  0  0  0  0  0  0  0  0  0
   14.6615    3.2819   -5.9984 H   0  0  0  0  0  0  0  0  0  0  0  0
   17.4904   -1.0253   -7.1687 H   0  0  0  0  0  0  0  0  0  0  0  0
   16.9532    0.4944   -7.8401 H   0  0  0  0  0  0  0  0  0  0  0  0
   17.2530    1.6363   -5.7203 H   0  0  0  0  0  0  0  0  0  0  0  0
   19.2498    0.7142   -6.6855 H   0  0  0  0  0  0  0  0  0  0  0  0
   16.6898    0.5121   -3.7517 H   0  0  0  0  0  0  0  0  0  0  0  0
   17.6776   -0.9049   -4.1587 H   0  0  0  0  0  0  0  0  0  0  0  0
  1 34  1  0  0  0  0
  1 35  1  0  0  0  0
  1 36  1  0  0  0  0
  1  2  1  0  0  0  0
  2  3  2  0  0  0  0
  2  4  1  0  0  0  0
  4 37  1  0  0  0  0
  5  4  1  0  0  0  0
  5 38  1  0  0  0  0
  5  6  1  0  0  0  0
  5 10  1  0  0  0  0
  6  7  1  0  0  0  0
  6  8  1  0  0  0  0
  6  9  1  0  0  0  0
  7 39  1  0  0  0  0
  7 40  1  0  0  0  0
  7 41  1  0  0  0  0
  8 42  1  0  0  0  0
  8 43  1  0  0  0  0
  8 44  1  0  0  0  0
  9 45  1  0  0  0  0
  9 46  1  0  0  0  0
  9 47  1  0  0  0  0
 10 11  2  0  0  0  0
 10 12  1  0  0  0  0
 12 33  1  0  0  0  0
 13 12  1  0  0  0  0
 13 30  1  0  0  0  0
 13 48  1  0  0  0  0
 13 14  1  0  0  0  0
 14 15  2  0  0  0  0
 14 16  1  0  0  0  0
 16 49  1  0  0  0  0
 16 17  1  0  0  0  0
 17 50  1  0  0  0  0
 17 51  1  0  0  0  0
 17 18  1  0  0  0  0
 18 19  1  0  0  0  0
 18 29  2  0  0  0  0
 19 52  1  0  0  0  0
 19 20  2  0  0  0  0
 20 53  1  0  0  0  0
 20 21  1  0  0  0  0
 21 28  2  0  0  0  0
 21 22  1  0  0  0  0
 22 23  2  0  0  0  0
 22 27  1  0  0  0  0
 23 24  1  0  0  0  0
 23 25  1  0  0  0  0
 24 54  1  0  0  0  0
 24 55  1  0  0  0  0
 24 56  1  0  0  0  0
 25 26  2  0  0  0  0
 26 57  1  0  0  0  0
 26 27  1  0  0  0  0
 28 58  1  0  0  0  0
 28 29  1  0  0  0  0
 29 59  1  0  0  0  0
 31 30  1  0  0  0  0
 30 60  1  0  0  0  0
 30 61  1  0  0  0  0
 31 33  1  0  0  0  0
 31 62  1  0  0  0  0
 31 32  1  0  0  0  0
 32 63  1  0  0  0  0
 33 64  1  0  0  0  0
 33 65  1  0  0  0  0
M  ZZC   1 c1
M  ZZC   2 c2
M  ZZC   3 o1
M  ZZC   4 n1
M  ZZC   5 c3
M  ZZC   6 c4
M  ZZC   7 c5
M  ZZC   8 c6
M  ZZC   9 c7
M  ZZC  10 c8
M  ZZC  11 o2
M  ZZC  12 n2
M  ZZC  13 c9
M  ZZC  14 c10
M  ZZC  15 o3
M  ZZC  16 n3
M  ZZC  17 c11
M  ZZC  18 c12
M  ZZC  19 c13
M  ZZC  20 c14
M  ZZC  21 c15
M  ZZC  22 c16
M  ZZC  23 c17
M  ZZC  24 c18
M  ZZC  25 n4
M  ZZC  26 c19
M  ZZC  27 s1
M  ZZC  28 c20
M  ZZC  29 c21
M  ZZC  30 c22
M  ZZC  31 c23
M  ZZC  32 o4
M  ZZC  33 c24
M  ZZC  34 h11
M  ZZC  35 h12
M  ZZC  36 h13
M  ZZC  37 h01
M  ZZC  38 h31
M  ZZC  39 h51
M  ZZC  40 h52
M  ZZC  41 h53
M  ZZC  42 h61
M  ZZC  43 h62
M  ZZC  44 h63
M  ZZC  45 h71
M  ZZC  46 h72
M  ZZC  47 h73
M  ZZC  48 h91
M  ZZC  49 h02
M  ZZC  50 h111
M  ZZC  51 h112
M  ZZC  52 h131
M  ZZC  53 h141
M  ZZC  54 h181
M  ZZC  55 h182
M  ZZC  56 h183
M  ZZC  57 h191
M  ZZC  58 h201
M  ZZC  59 h211
M  ZZC  60 h221
M  ZZC  61 h222
M  ZZC  62 h231
M  ZZC  63 h41
M  ZZC  64 h241
M  ZZC  65 h242
M  ZZM   1 1
M  ZZI   1 111
M  ZZM   2 3
M  ZZI   2 121
M  ZZM   3 7
M  ZZI   3 81
M  ZZM   4 10
M  ZZI   4 211
M  ZZM   5 1
M  ZZI   5 113
M  ZZM   6 1
M  ZZI   6 110
M  ZZM   7 1
M  ZZI   7 111
M  ZZM   8 1
M  ZZI   8 111
M  ZZM   9 1
M  ZZI   9 111
M  ZZM  10 3
M  ZZI  10 121
M  ZZM  11 7
M  ZZI  11 81
M  ZZM  12 10
M  ZZI  12 192
M  ZZM  13 1
M  ZZI  13 113
M  ZZM  14 3
M  ZZI  14 121
M  ZZM  15 7
M  ZZI  15 81
M  ZZM  16 10
M  ZZI  16 211
M  ZZM  17 1
M  ZZI  17 112
M  ZZM  18 37
M  ZZI  18 124
M  ZZM  19 37
M  ZZI  19 125
M  ZZM  20 37
M  ZZI  20 125
M  ZZM  21 37
M  ZZI  21 124
M  ZZM  22 63
M  ZZI  22 104
M  ZZM  23 64
M  ZZI  23 105
M  ZZM  24 1
M  ZZI  24 111
M  ZZM  25 66
M  ZZI  25 222
M  ZZM  26 63
M  ZZI  26 104
M  ZZM  27 44
M  ZZI  27 248
M  ZZM  28 37
M  ZZI  28 125
M  ZZM  29 37
M  ZZI  29 125
M  ZZM  30 1
M  ZZI  30 112
M  ZZM  31 1
M  ZZI  31 113
M  ZZM  32 6
M  ZZI  32 60
M  ZZM  33 1
M  ZZI  33 112
M  ZZM  34 5
M  ZZI  34 1
M  ZZM  35 5
M  ZZI  35 1
M  ZZM  36 5
M  ZZI  36 1
M  ZZM  37 28
M  ZZI  37 11
M  ZZM  38 5
M  ZZI  38 1
M  ZZM  39 5
M  ZZI  39 1
M  ZZM  40 5
M  ZZI  40 1
M  ZZM  41 5
M  ZZI  41 1
M  ZZM  42 5
M  ZZI  42 1
M  ZZM  43 5
M  ZZI  43 1
M  ZZM  44 5
M  ZZI  44 1
M  ZZM  45 5
M  ZZI  45 1
M  ZZM  46 5
M  ZZI  46 1
M  ZZM  47 5
M  ZZI  47 1
M  ZZM  48 5
M  ZZI  48 1
M  ZZM  49 28
M  ZZI  49 11
M  ZZM  50 5
M  ZZI  50 1
M  ZZM  51 5
M  ZZI  51 1
M  ZZM  52 5
M  ZZI  52 1
M  ZZM  53 5
M  ZZI  53 1
M  ZZM  54 5
M  ZZI  54 1
M  ZZM  55 5
M  ZZI  55 1
M  ZZM  56 5
M  ZZI  56 1
M  ZZM  57 5
M  ZZI  57 1
M  ZZM  58 5
M  ZZI  58 1
M  ZZM  59 5
M  ZZI  59 1
M  ZZM  60 5
M  ZZI  60 1
M  ZZM  61 5
M  ZZI  61 1
M  ZZM  62 5
M  ZZI  62 1
M  ZZM  63 21
M  ZZI  63 20
M  ZZM  64 5
M  ZZI  64 1
M  ZZM  65 5
M  ZZI  65 1
M  END
> <IX>
1

> <NAME>
VHL_1EJ1_18.pdb

> <Score>
-7.551478

> <Natom>
65

> <Nflex>
8

> <Hbond>
-5.182591

> <Hphob>
-6.566925

> <VwInt>
-28.477149

> <Dsolv>
20.131277

> <SolEl>
20.512598

> <Eintl>
8.334488

> <RecConf>
ND

> <projPath>
VHL_maps/

> <NAME_>
VHL_1EJ1_18.pdb

$$$$
