VHL_5F1H_4.pdb
  MOLSOFT 04032206423D

 70 73  0  0  1  0  0  0  0  0999 V2000
   12.6629    4.7004   -8.9822 F   0  0  0  0  0  0  0  0  0  0  0  0
   13.7199    5.3938   -8.4064 C   0  0  0  0  0  0  0  0  0  0  0  0
   14.7885    4.5407   -7.8279 C   0  0  0  0  0  0  0  0  0  0  0  0
   15.8243    4.3287   -8.4453 O   0  0  0  0  0  0  0  0  0  0  0  0
   14.4748    4.0325   -6.5827 N   0  0  0  0  0  0  0  0  0  0  0  0
   15.3825    3.1822   -5.8149 C   0  0  1  0  0  0  0  0  0  0  0  0
   15.8755    3.8732   -4.5086 C   0  0  0  0  0  0  0  0  0  0  0  0
   16.7569    2.9009   -3.7072 C   0  0  0  0  0  0  0  0  0  0  0  0
   14.7271    4.3616   -3.6032 C   0  0  0  0  0  0  0  0  0  0  0  0
   16.7349    5.0939   -4.8793 C   0  0  0  0  0  0  0  0  0  0  0  0
   14.6556    1.8483   -5.5634 C   0  0  0  0  0  0  0  0  0  0  0  0
   13.6733    1.7782   -4.8368 O   0  0  0  0  0  0  0  0  0  0  0  0
   15.1421    0.7279   -6.2334 N   0  0  0  0  0  0  0  0  0  0  0  0
   14.5836   -0.6008   -6.0130 C   0  0  2  0  0  0  0  0  0  0  0  0
   15.2384   -1.2865   -4.8081 C   0  0  0  0  0  0  0  0  0  0  0  0
   16.3114   -0.9295   -4.3399 O   0  0  0  0  0  0  0  0  0  0  0  0
   14.5319   -2.3823   -4.3435 N   0  0  0  0  0  0  0  0  0  0  0  0
   15.0326   -3.2049   -3.2586 C   0  0  0  0  0  0  0  0  0  0  0  0
   14.7768   -2.6233   -1.8892 C   0  0  0  0  0  0  0  0  0  0  0  0
   15.5860   -2.9726   -0.8150 C   0  0  0  0  0  0  0  0  0  0  0  0
   16.6486   -3.8292   -1.0403 O   0  0  0  0  0  0  0  0  0  0  0  0
   15.3586   -2.4876    0.4646 C   0  0  0  0  0  0  0  0  0  0  0  0
   14.2915   -1.6274    0.7085 C   0  0  0  0  0  0  0  0  0  0  0  0
   14.0303   -1.1101    2.0477 C   0  0  0  0  0  0  0  0  0  0  0  0
   13.7930    0.1863    2.4911 C   0  0  0  0  0  0  0  0  0  0  0  0
   13.7528    1.4235    1.6749 C   0  0  0  0  0  0  0  0  0  0  0  0
   13.5799    0.3102    3.8504 N   0  0  0  0  0  0  0  0  0  0  0  0
   13.6326   -0.8728    4.4182 C   0  0  0  0  0  0  0  0  0  0  0  0
   13.9539   -2.1925    3.3860 S   0  0  0  0  0  0  0  0  0  0  0  0
   13.4740   -1.2759   -0.3610 C   0  0  0  0  0  0  0  0  0  0  0  0
   13.7072   -1.7689   -1.6331 C   0  0  0  0  0  0  0  0  0  0  0  0
   14.9247   -1.3452   -7.2903 C   0  0  0  0  0  0  0  0  0  0  0  0
   16.2613   -0.7590   -7.6841 C   0  0  1  0  0  0  0  0  0  0  0  0
   16.5147   -0.9269   -9.0787 O   0  0  0  0  0  0  0  0  0  0  0  0
   16.1447    0.7030   -7.2845 C   0  0  0  0  0  0  0  0  0  0  0  0
   13.3459    6.6996   -7.7477 C   0  0  0  0  0  0  0  0  0  0  0  0
   14.0551    6.7071   -9.0646 C   0  0  0  0  0  0  0  0  0  0  0  0
   13.5610    4.2409   -6.1898 H   0  0  0  0  0  0  0  0  0  0  0  0
   16.2594    3.0016   -6.4400 H   0  0  0  0  0  0  0  0  0  0  0  0
   16.1884    2.0414   -3.3387 H   0  0  0  0  0  0  0  0  0  0  0  0
   17.1977    3.3896   -2.8322 H   0  0  0  0  0  0  0  0  0  0  0  0
   17.5823    2.5151   -4.3150 H   0  0  0  0  0  0  0  0  0  0  0  0
   15.1162    4.8855   -2.7242 H   0  0  0  0  0  0  0  0  0  0  0  0
   14.1132    3.5399   -3.2262 H   0  0  0  0  0  0  0  0  0  0  0  0
   14.0642    5.0621   -4.1199 H   0  0  0  0  0  0  0  0  0  0  0  0
   17.1602    5.5698   -3.9896 H   0  0  0  0  0  0  0  0  0  0  0  0
   16.1528    5.8585   -5.4034 H   0  0  0  0  0  0  0  0  0  0  0  0
   17.5715    4.8136   -5.5279 H   0  0  0  0  0  0  0  0  0  0  0  0
   13.5010   -0.5427   -5.8473 H   0  0  0  0  0  0  0  0  0  0  0  0
   13.6435   -2.6358   -4.7605 H   0  0  0  0  0  0  0  0  0  0  0  0
   14.5432   -4.1814   -3.3355 H   0  0  0  0  0  0  0  0  0  0  0  0
   16.1057   -3.3472   -3.4269 H   0  0  0  0  0  0  0  0  0  0  0  0
   17.1508   -3.9128   -0.2116 H   0  0  0  0  0  0  0  0  0  0  0  0
   16.0206   -2.7788    1.2738 H   0  0  0  0  0  0  0  0  0  0  0  0
   13.8654    2.3161    2.2970 H   0  0  0  0  0  0  0  0  0  0  0  0
   12.8014    1.5094    1.1419 H   0  0  0  0  0  0  0  0  0  0  0  0
   14.5524    1.4172    0.9287 H   0  0  0  0  0  0  0  0  0  0  0  0
   13.4831   -1.0104    5.4794 H   0  0  0  0  0  0  0  0  0  0  0  0
   12.6209   -0.6220   -0.2092 H   0  0  0  0  0  0  0  0  0  0  0  0
   13.0354   -1.4726   -2.4305 H   0  0  0  0  0  0  0  0  0  0  0  0
   14.9816   -2.4318   -7.1823 H   0  0  0  0  0  0  0  0  0  0  0  0
   14.1795   -1.1257   -8.0548 H   0  0  0  0  0  0  0  0  0  0  0  0
   17.0550   -1.2470   -7.1116 H   0  0  0  0  0  0  0  0  0  0  0  0
   17.4518   -0.6791   -9.1885 H   0  0  0  0  0  0  0  0  0  0  0  0
   15.8162    1.3387   -8.1140 H   0  0  0  0  0  0  0  0  0  0  0  0
   17.0989    1.0882   -6.9110 H   0  0  0  0  0  0  0  0  0  0  0  0
   12.2986    6.9704   -7.7360 H   0  0  0  0  0  0  0  0  0  0  0  0
   13.8989    7.0208   -6.8738 H   0  0  0  0  0  0  0  0  0  0  0  0
   15.0893    7.0289   -9.0837 H   0  0  0  0  0  0  0  0  0  0  0  0
   13.4806    6.9844   -9.9367 H   0  0  0  0  0  0  0  0  0  0  0  0
  2  1  1  0  0  0  0
  2 36  1  0  0  0  0
  2  3  1  0  0  0  0
  2 37  1  0  0  0  0
  3  4  2  0  0  0  0
  3  5  1  0  0  0  0
  5 38  1  0  0  0  0
  6  5  1  0  0  0  0
  6 39  1  0  0  0  0
  6  7  1  0  0  0  0
  6 11  1  0  0  0  0
  7  8  1  0  0  0  0
  7  9  1  0  0  0  0
  7 10  1  0  0  0  0
  8 40  1  0  0  0  0
  8 41  1  0  0  0  0
  8 42  1  0  0  0  0
  9 43  1  0  0  0  0
  9 44  1  0  0  0  0
  9 45  1  0  0  0  0
 10 46  1  0  0  0  0
 10 47  1  0  0  0  0
 10 48  1  0  0  0  0
 11 12  2  0  0  0  0
 11 13  1  0  0  0  0
 13 35  1  0  0  0  0
 14 13  1  0  0  0  0
 14 32  1  0  0  0  0
 14 49  1  0  0  0  0
 14 15  1  0  0  0  0
 15 16  2  0  0  0  0
 15 17  1  0  0  0  0
 17 50  1  0  0  0  0
 17 18  1  0  0  0  0
 18 51  1  0  0  0  0
 18 52  1  0  0  0  0
 18 19  1  0  0  0  0
 19 20  2  0  0  0  0
 19 31  1  0  0  0  0
 20 21  1  0  0  0  0
 20 22  1  0  0  0  0
 21 53  1  0  0  0  0
 22 54  1  0  0  0  0
 22 23  2  0  0  0  0
 23 30  1  0  0  0  0
 23 24  1  0  0  0  0
 24 25  2  0  0  0  0
 24 29  1  0  0  0  0
 25 26  1  0  0  0  0
 25 27  1  0  0  0  0
 26 55  1  0  0  0  0
 26 56  1  0  0  0  0
 26 57  1  0  0  0  0
 27 28  2  0  0  0  0
 28 58  1  0  0  0  0
 28 29  1  0  0  0  0
 30 59  1  0  0  0  0
 30 31  2  0  0  0  0
 31 60  1  0  0  0  0
 33 32  1  0  0  0  0
 32 61  1  0  0  0  0
 32 62  1  0  0  0  0
 33 35  1  0  0  0  0
 33 63  1  0  0  0  0
 33 34  1  0  0  0  0
 34 64  1  0  0  0  0
 35 65  1  0  0  0  0
 35 66  1  0  0  0  0
 36 67  1  0  0  0  0
 36 68  1  0  0  0  0
 36 37  1  0  0  0  0
 37 69  1  0  0  0  0
 37 70  1  0  0  0  0
M  ZZC   1 f1
M  ZZC   2 c1
M  ZZC   3 c2
M  ZZC   4 o1
M  ZZC   5 n1
M  ZZC   6 c3
M  ZZC   7 c4
M  ZZC   8 c5
M  ZZC   9 c6
M  ZZC  10 c7
M  ZZC  11 c8
M  ZZC  12 o2
M  ZZC  13 n2
M  ZZC  14 c9
M  ZZC  15 c10
M  ZZC  16 o3
M  ZZC  17 n3
M  ZZC  18 c11
M  ZZC  19 c12
M  ZZC  20 c13
M  ZZC  21 o4
M  ZZC  22 c14
M  ZZC  23 c15
M  ZZC  24 c16
M  ZZC  25 c17
M  ZZC  26 c18
M  ZZC  27 n4
M  ZZC  28 c19
M  ZZC  29 s1
M  ZZC  30 c20
M  ZZC  31 c21
M  ZZC  32 c22
M  ZZC  33 c23
M  ZZC  34 o5
M  ZZC  35 c24
M  ZZC  36 c25
M  ZZC  37 c26
M  ZZC  38 h11
M  ZZC  39 h31
M  ZZC  40 h51
M  ZZC  41 h52
M  ZZC  42 h53
M  ZZC  43 h61
M  ZZC  44 h62
M  ZZC  45 h63
M  ZZC  46 h71
M  ZZC  47 h72
M  ZZC  48 h73
M  ZZC  49 h91
M  ZZC  50 h01
M  ZZC  51 h111
M  ZZC  52 h112
M  ZZC  53 h41
M  ZZC  54 h141
M  ZZC  55 h181
M  ZZC  56 h182
M  ZZC  57 h183
M  ZZC  58 h191
M  ZZC  59 h201
M  ZZC  60 h211
M  ZZC  61 h221
M  ZZC  62 h222
M  ZZC  63 h231
M  ZZC  64 h02
M  ZZC  65 h241
M  ZZC  66 h242
M  ZZC  67 h251
M  ZZC  68 h252
M  ZZC  69 h261
M  ZZC  70 h262
M  ZZM   1 11
M  ZZI   1 90
M  ZZM   2 22
M  ZZI   2 109
M  ZZM   3 3
M  ZZI   3 121
M  ZZM   4 7
M  ZZI   4 81
M  ZZM   5 10
M  ZZI   5 211
M  ZZM   6 1
M  ZZI   6 113
M  ZZM   7 1
M  ZZI   7 110
M  ZZM   8 1
M  ZZI   8 111
M  ZZM   9 1
M  ZZI   9 111
M  ZZM  10 1
M  ZZI  10 111
M  ZZM  11 3
M  ZZI  11 121
M  ZZM  12 7
M  ZZI  12 81
M  ZZM  13 10
M  ZZI  13 192
M  ZZM  14 1
M  ZZI  14 113
M  ZZM  15 3
M  ZZI  15 121
M  ZZM  16 7
M  ZZI  16 81
M  ZZM  17 10
M  ZZI  17 211
M  ZZM  18 1
M  ZZI  18 112
M  ZZM  19 37
M  ZZI  19 124
M  ZZM  20 37
M  ZZI  20 124
M  ZZM  21 6
M  ZZI  21 62
M  ZZM  22 37
M  ZZI  22 125
M  ZZM  23 37
M  ZZI  23 124
M  ZZM  24 63
M  ZZI  24 104
M  ZZM  25 64
M  ZZI  25 105
M  ZZM  26 1
M  ZZI  26 111
M  ZZM  27 66
M  ZZI  27 222
M  ZZM  28 63
M  ZZI  28 104
M  ZZM  29 44
M  ZZI  29 248
M  ZZM  30 37
M  ZZI  30 125
M  ZZM  31 37
M  ZZI  31 125
M  ZZM  32 1
M  ZZI  32 112
M  ZZM  33 1
M  ZZI  33 113
M  ZZM  34 6
M  ZZI  34 60
M  ZZM  35 1
M  ZZI  35 112
M  ZZM  36 22
M  ZZI  36 109
M  ZZM  37 22
M  ZZI  37 109
M  ZZM  38 28
M  ZZI  38 11
M  ZZM  39 5
M  ZZI  39 1
M  ZZM  40 5
M  ZZI  40 1
M  ZZM  41 5
M  ZZI  41 1
M  ZZM  42 5
M  ZZI  42 1
M  ZZM  43 5
M  ZZI  43 1
M  ZZM  44 5
M  ZZI  44 1
M  ZZM  45 5
M  ZZI  45 1
M  ZZM  46 5
M  ZZI  46 1
M  ZZM  47 5
M  ZZI  47 1
M  ZZM  48 5
M  ZZI  48 1
M  ZZM  49 5
M  ZZI  49 1
M  ZZM  50 28
M  ZZI  50 11
M  ZZM  51 5
M  ZZI  51 1
M  ZZM  52 5
M  ZZI  52 1
M  ZZM  53 29
M  ZZI  53 27
M  ZZM  54 5
M  ZZI  54 1
M  ZZM  55 5
M  ZZI  55 1
M  ZZM  56 5
M  ZZI  56 1
M  ZZM  57 5
M  ZZI  57 1
M  ZZM  58 5
M  ZZI  58 1
M  ZZM  59 5
M  ZZI  59 1
M  ZZM  60 5
M  ZZI  60 1
M  ZZM  61 5
M  ZZI  61 1
M  ZZM  62 5
M  ZZI  62 1
M  ZZM  63 5
M  ZZI  63 1
M  ZZM  64 21
M  ZZI  64 20
M  ZZM  65 5
M  ZZI  65 1
M  ZZM  66 5
M  ZZI  66 1
M  ZZM  67 5
M  ZZI  67 1
M  ZZM  68 5
M  ZZI  68 1
M  ZZM  69 5
M  ZZI  69 1
M  ZZM  70 5
M  ZZI  70 1
M  END
> <IX>
1

> <NAME>
VHL_5F1H_4.pdb

> <Score>
-15.528906

> <Natom>
70

> <Nflex>
9

> <Hbond>
-6.327463

> <Hphob>
-6.115206

> <VwInt>
-28.531179

> <Dsolv>
22.270125

> <SolEl>
12.444649

> <Eintl>
4.653134

> <RecConf>
ND

> <projPath>
VHL_maps/

> <NAME_>
VHL_5F1H_4.pdb

$$$$
