VHL_5LLI_2.pdb
  MOLSOFT 04032206423D

 65 67  0  0  1  0  0  0  0  0999 V2000
   13.8793    8.2565   -1.5138 C   0  0  0  0  0  0  0  0  0  0  0  0
   13.3924    7.0229   -2.2220 C   0  0  0  0  0  0  0  0  0  0  0  0
   12.2182    6.6876   -2.1864 O   0  0  0  0  0  0  0  0  0  0  0  0
   14.4023    6.3388   -2.8714 N   0  0  0  0  0  0  0  0  0  0  0  0
   14.1703    5.1074   -3.6343 C   0  0  2  0  0  0  0  0  0  0  0  0
   14.3924    3.8123   -2.7830 C   0  0  0  0  0  0  0  0  0  0  0  0
   13.3087    3.6950   -1.7028 C   0  0  0  0  0  0  0  0  0  0  0  0
   15.7530    3.7903   -2.0623 C   0  0  0  0  0  0  0  0  0  0  0  0
   14.2711    2.5620   -3.6681 C   0  0  0  0  0  0  0  0  0  0  0  0
   15.0523    5.1805   -4.8977 C   0  0  0  0  0  0  0  0  0  0  0  0
   16.1547    4.6532   -4.9493 O   0  0  0  0  0  0  0  0  0  0  0  0
   14.5572    5.8946   -5.9908 N   0  0  0  0  0  0  0  0  0  0  0  0
   15.2788    5.9051   -7.2624 C   0  0  1  0  0  0  0  0  0  0  0  0
   15.1142    4.5924   -8.0352 C   0  0  0  0  0  0  0  0  0  0  0  0
   15.8983    4.2754   -8.9161 O   0  0  0  0  0  0  0  0  0  0  0  0
   13.9739    3.8682   -7.7483 N   0  0  0  0  0  0  0  0  0  0  0  0
   13.6606    2.5987   -8.3752 C   0  0  0  0  0  0  0  0  0  0  0  0
   13.9584    1.4281   -7.4679 C   0  0  0  0  0  0  0  0  0  0  0  0
   12.9374    0.6992   -6.8654 C   0  0  0  0  0  0  0  0  0  0  0  0
   13.2179   -0.3429   -5.9967 C   0  0  0  0  0  0  0  0  0  0  0  0
   14.5312   -0.6947   -5.6854 C   0  0  0  0  0  0  0  0  0  0  0  0
   14.8351   -1.7513   -4.7140 C   0  0  0  0  0  0  0  0  0  0  0  0
   15.7935   -2.7615   -4.7202 C   0  0  0  0  0  0  0  0  0  0  0  0
   16.7854   -3.0506   -5.7775 C   0  0  0  0  0  0  0  0  0  0  0  0
   15.7984   -3.5861   -3.6123 N   0  0  0  0  0  0  0  0  0  0  0  0
   14.8690   -3.2022   -2.7703 C   0  0  0  0  0  0  0  0  0  0  0  0
   13.9453   -1.8468   -3.2391 S   0  0  0  0  0  0  0  0  0  0  0  0
   15.5498    0.0134   -6.3204 C   0  0  0  0  0  0  0  0  0  0  0  0
   15.2694    1.0520   -7.1944 C   0  0  0  0  0  0  0  0  0  0  0  0
   14.6948    7.0788   -8.0373 C   0  0  0  0  0  0  0  0  0  0  0  0
   13.3101    7.2676   -7.4472 C   0  0  2  0  0  0  0  0  0  0  0  0
   12.9152    8.6298   -7.5794 O   0  0  0  0  0  0  0  0  0  0  0  0
   13.4785    6.8662   -5.9894 C   0  0  0  0  0  0  0  0  0  0  0  0
   14.6635    7.9899   -0.7987 H   0  0  0  0  0  0  0  0  0  0  0  0
   13.0501    8.7234   -0.9736 H   0  0  0  0  0  0  0  0  0  0  0  0
   14.2758    8.9688   -2.2439 H   0  0  0  0  0  0  0  0  0  0  0  0
   15.3523    6.6907   -2.8025 H   0  0  0  0  0  0  0  0  0  0  0  0
   13.1265    5.1088   -3.9619 H   0  0  0  0  0  0  0  0  0  0  0  0
   13.3842    4.5079   -0.9782 H   0  0  0  0  0  0  0  0  0  0  0  0
   13.3964    2.7586   -1.1418 H   0  0  0  0  0  0  0  0  0  0  0  0
   12.3038    3.7151   -2.1320 H   0  0  0  0  0  0  0  0  0  0  0  0
   16.5971    3.8043   -2.7553 H   0  0  0  0  0  0  0  0  0  0  0  0
   15.8619    2.8851   -1.4559 H   0  0  0  0  0  0  0  0  0  0  0  0
   15.8686    4.6424   -1.3853 H   0  0  0  0  0  0  0  0  0  0  0  0
   14.2636    1.6457   -3.0692 H   0  0  0  0  0  0  0  0  0  0  0  0
   15.1027    2.4688   -4.3699 H   0  0  0  0  0  0  0  0  0  0  0  0
   13.3458    2.5782   -4.2508 H   0  0  0  0  0  0  0  0  0  0  0  0
   16.3502    6.0429   -7.0762 H   0  0  0  0  0  0  0  0  0  0  0  0
   13.3426    4.2220   -7.0398 H   0  0  0  0  0  0  0  0  0  0  0  0
   12.6007    2.6320   -8.6405 H   0  0  0  0  0  0  0  0  0  0  0  0
   14.2170    2.4976   -9.3112 H   0  0  0  0  0  0  0  0  0  0  0  0
   11.8971    0.9409   -7.0604 H   0  0  0  0  0  0  0  0  0  0  0  0
   12.3811   -0.8781   -5.5599 H   0  0  0  0  0  0  0  0  0  0  0  0
   17.1290   -4.0881   -5.7216 H   0  0  0  0  0  0  0  0  0  0  0  0
   17.6586   -2.4020   -5.6701 H   0  0  0  0  0  0  0  0  0  0  0  0
   16.3475   -2.8985   -6.7683 H   0  0  0  0  0  0  0  0  0  0  0  0
   14.6986   -3.7089   -1.8311 H   0  0  0  0  0  0  0  0  0  0  0  0
   16.5915   -0.2157   -6.1182 H   0  0  0  0  0  0  0  0  0  0  0  0
   16.0963    1.5884   -7.6508 H   0  0  0  0  0  0  0  0  0  0  0  0
   15.2982    7.9796   -7.8758 H   0  0  0  0  0  0  0  0  0  0  0  0
   14.6553    6.9159   -9.1197 H   0  0  0  0  0  0  0  0  0  0  0  0
   12.5836    6.6264   -7.9586 H   0  0  0  0  0  0  0  0  0  0  0  0
   12.0859    8.7459   -7.0854 H   0  0  0  0  0  0  0  0  0  0  0  0
   12.5591    6.4614   -5.5607 H   0  0  0  0  0  0  0  0  0  0  0  0
   13.7767    7.7172   -5.3670 H   0  0  0  0  0  0  0  0  0  0  0  0
  1 34  1  0  0  0  0
  1 35  1  0  0  0  0
  1 36  1  0  0  0  0
  1  2  1  0  0  0  0
  2  3  2  0  0  0  0
  2  4  1  0  0  0  0
  4 37  1  0  0  0  0
  5  4  1  0  0  0  0
  5 38  1  0  0  0  0
  5  6  1  0  0  0  0
  5 10  1  0  0  0  0
  6  7  1  0  0  0  0
  6  8  1  0  0  0  0
  6  9  1  0  0  0  0
  7 39  1  0  0  0  0
  7 40  1  0  0  0  0
  7 41  1  0  0  0  0
  8 42  1  0  0  0  0
  8 43  1  0  0  0  0
  8 44  1  0  0  0  0
  9 45  1  0  0  0  0
  9 46  1  0  0  0  0
  9 47  1  0  0  0  0
 10 11  2  0  0  0  0
 10 12  1  0  0  0  0
 12 33  1  0  0  0  0
 13 12  1  0  0  0  0
 13 30  1  0  0  0  0
 13 48  1  0  0  0  0
 13 14  1  0  0  0  0
 14 15  2  0  0  0  0
 14 16  1  0  0  0  0
 16 49  1  0  0  0  0
 16 17  1  0  0  0  0
 17 50  1  0  0  0  0
 17 51  1  0  0  0  0
 17 18  1  0  0  0  0
 18 19  1  0  0  0  0
 18 29  2  0  0  0  0
 19 52  1  0  0  0  0
 19 20  2  0  0  0  0
 20 53  1  0  0  0  0
 20 21  1  0  0  0  0
 21 28  2  0  0  0  0
 21 22  1  0  0  0  0
 22 23  2  0  0  0  0
 22 27  1  0  0  0  0
 23 24  1  0  0  0  0
 23 25  1  0  0  0  0
 24 54  1  0  0  0  0
 24 55  1  0  0  0  0
 24 56  1  0  0  0  0
 25 26  2  0  0  0  0
 26 57  1  0  0  0  0
 26 27  1  0  0  0  0
 28 58  1  0  0  0  0
 28 29  1  0  0  0  0
 29 59  1  0  0  0  0
 31 30  1  0  0  0  0
 30 60  1  0  0  0  0
 30 61  1  0  0  0  0
 31 33  1  0  0  0  0
 31 62  1  0  0  0  0
 31 32  1  0  0  0  0
 32 63  1  0  0  0  0
 33 64  1  0  0  0  0
 33 65  1  0  0  0  0
M  ZZC   1 c1
M  ZZC   2 c2
M  ZZC   3 o1
M  ZZC   4 n1
M  ZZC   5 c3
M  ZZC   6 c4
M  ZZC   7 c5
M  ZZC   8 c6
M  ZZC   9 c7
M  ZZC  10 c8
M  ZZC  11 o2
M  ZZC  12 n2
M  ZZC  13 c9
M  ZZC  14 c10
M  ZZC  15 o3
M  ZZC  16 n3
M  ZZC  17 c11
M  ZZC  18 c12
M  ZZC  19 c13
M  ZZC  20 c14
M  ZZC  21 c15
M  ZZC  22 c16
M  ZZC  23 c17
M  ZZC  24 c18
M  ZZC  25 n4
M  ZZC  26 c19
M  ZZC  27 s1
M  ZZC  28 c20
M  ZZC  29 c21
M  ZZC  30 c22
M  ZZC  31 c23
M  ZZC  32 o4
M  ZZC  33 c24
M  ZZC  34 h11
M  ZZC  35 h12
M  ZZC  36 h13
M  ZZC  37 h01
M  ZZC  38 h31
M  ZZC  39 h51
M  ZZC  40 h52
M  ZZC  41 h53
M  ZZC  42 h61
M  ZZC  43 h62
M  ZZC  44 h63
M  ZZC  45 h71
M  ZZC  46 h72
M  ZZC  47 h73
M  ZZC  48 h91
M  ZZC  49 h02
M  ZZC  50 h111
M  ZZC  51 h112
M  ZZC  52 h131
M  ZZC  53 h141
M  ZZC  54 h181
M  ZZC  55 h182
M  ZZC  56 h183
M  ZZC  57 h191
M  ZZC  58 h201
M  ZZC  59 h211
M  ZZC  60 h221
M  ZZC  61 h222
M  ZZC  62 h231
M  ZZC  63 h41
M  ZZC  64 h241
M  ZZC  65 h242
M  ZZM   1 1
M  ZZI   1 111
M  ZZM   2 3
M  ZZI   2 121
M  ZZM   3 7
M  ZZI   3 81
M  ZZM   4 10
M  ZZI   4 211
M  ZZM   5 1
M  ZZI   5 113
M  ZZM   6 1
M  ZZI   6 110
M  ZZM   7 1
M  ZZI   7 111
M  ZZM   8 1
M  ZZI   8 111
M  ZZM   9 1
M  ZZI   9 111
M  ZZM  10 3
M  ZZI  10 121
M  ZZM  11 7
M  ZZI  11 81
M  ZZM  12 10
M  ZZI  12 192
M  ZZM  13 1
M  ZZI  13 113
M  ZZM  14 3
M  ZZI  14 121
M  ZZM  15 7
M  ZZI  15 81
M  ZZM  16 10
M  ZZI  16 211
M  ZZM  17 1
M  ZZI  17 112
M  ZZM  18 37
M  ZZI  18 124
M  ZZM  19 37
M  ZZI  19 125
M  ZZM  20 37
M  ZZI  20 125
M  ZZM  21 37
M  ZZI  21 124
M  ZZM  22 63
M  ZZI  22 104
M  ZZM  23 64
M  ZZI  23 105
M  ZZM  24 1
M  ZZI  24 111
M  ZZM  25 66
M  ZZI  25 222
M  ZZM  26 63
M  ZZI  26 104
M  ZZM  27 44
M  ZZI  27 248
M  ZZM  28 37
M  ZZI  28 125
M  ZZM  29 37
M  ZZI  29 125
M  ZZM  30 1
M  ZZI  30 112
M  ZZM  31 1
M  ZZI  31 113
M  ZZM  32 6
M  ZZI  32 60
M  ZZM  33 1
M  ZZI  33 112
M  ZZM  34 5
M  ZZI  34 1
M  ZZM  35 5
M  ZZI  35 1
M  ZZM  36 5
M  ZZI  36 1
M  ZZM  37 28
M  ZZI  37 11
M  ZZM  38 5
M  ZZI  38 1
M  ZZM  39 5
M  ZZI  39 1
M  ZZM  40 5
M  ZZI  40 1
M  ZZM  41 5
M  ZZI  41 1
M  ZZM  42 5
M  ZZI  42 1
M  ZZM  43 5
M  ZZI  43 1
M  ZZM  44 5
M  ZZI  44 1
M  ZZM  45 5
M  ZZI  45 1
M  ZZM  46 5
M  ZZI  46 1
M  ZZM  47 5
M  ZZI  47 1
M  ZZM  48 5
M  ZZI  48 1
M  ZZM  49 28
M  ZZI  49 11
M  ZZM  50 5
M  ZZI  50 1
M  ZZM  51 5
M  ZZI  51 1
M  ZZM  52 5
M  ZZI  52 1
M  ZZM  53 5
M  ZZI  53 1
M  ZZM  54 5
M  ZZI  54 1
M  ZZM  55 5
M  ZZI  55 1
M  ZZM  56 5
M  ZZI  56 1
M  ZZM  57 5
M  ZZI  57 1
M  ZZM  58 5
M  ZZI  58 1
M  ZZM  59 5
M  ZZI  59 1
M  ZZM  60 5
M  ZZI  60 1
M  ZZM  61 5
M  ZZI  61 1
M  ZZM  62 5
M  ZZI  62 1
M  ZZM  63 21
M  ZZI  63 20
M  ZZM  64 5
M  ZZI  64 1
M  ZZM  65 5
M  ZZI  65 1
M  END
> <IX>
1

> <NAME>
VHL_5LLI_2.pdb

> <Score>
-13.411385

> <Natom>
65

> <Nflex>
8

> <Hbond>
-4.13481

> <Hphob>
-6.626805

> <VwInt>
-25.027065

> <Dsolv>
18.589253

> <SolEl>
8.264239

> <Eintl>
3.867284

> <RecConf>
ND

> <projPath>
VHL_maps/

> <NAME_>
VHL_5LLI_2.pdb

$$$$
