VHL_5WUK_1.pdb
  MOLSOFT 04032206423D

 65 67  0  0  1  0  0  0  0  0999 V2000
   15.8399   -6.3320   -5.5648 O   0  0  0  0  0  0  0  0  0  0  0  0
   16.9174   -6.0633   -5.0620 C   0  0  0  0  0  0  0  0  0  0  0  0
   17.2029   -4.8991   -4.3767 N   0  0  0  0  0  0  0  0  0  0  0  0
   16.2643   -3.7805   -4.2054 C   0  0  1  0  0  0  0  0  0  0  0  0
   15.8546   -3.5635   -2.7170 C   0  0  0  0  0  0  0  0  0  0  0  0
   15.3282   -4.8879   -2.1493 C   0  0  0  0  0  0  0  0  0  0  0  0
   14.7211   -2.5364   -2.5805 C   0  0  0  0  0  0  0  0  0  0  0  0
   17.0264   -3.0788   -1.8509 C   0  0  0  0  0  0  0  0  0  0  0  0
   16.9626   -2.5782   -4.8643 C   0  0  0  0  0  0  0  0  0  0  0  0
   18.1660   -2.3982   -4.7355 O   0  0  0  0  0  0  0  0  0  0  0  0
   16.1902   -1.6749   -5.5909 N   0  0  0  0  0  0  0  0  0  0  0  0
   16.8256   -0.5849   -6.3188 C   0  0  2  0  0  0  0  0  0  0  0  0
   17.3614    0.5067   -5.3949 C   0  0  0  0  0  0  0  0  0  0  0  0
   16.9144    0.7089   -4.2737 O   0  0  0  0  0  0  0  0  0  0  0  0
   18.3234    1.2955   -6.0026 N   0  0  0  0  0  0  0  0  0  0  0  0
   18.6889    2.5970   -5.4793 C   0  0  0  0  0  0  0  0  0  0  0  0
   17.6879    3.6068   -5.9738 C   0  0  0  0  0  0  0  0  0  0  0  0
   16.4423    3.6929   -5.3611 C   0  0  0  0  0  0  0  0  0  0  0  0
   15.4134    4.3865   -5.9585 C   0  0  0  0  0  0  0  0  0  0  0  0
   15.6209    5.0440   -7.1606 C   0  0  0  0  0  0  0  0  0  0  0  0
   14.4793    5.5990   -7.8544 C   0  0  0  0  0  0  0  0  0  0  0  0
   13.4492    4.9390   -8.5088 C   0  0  0  0  0  0  0  0  0  0  0  0
   13.3282    3.4783   -8.7357 C   0  0  0  0  0  0  0  0  0  0  0  0
   12.4369    5.7566   -8.9567 N   0  0  0  0  0  0  0  0  0  0  0  0
   12.7462    7.0079   -8.6964 C   0  0  0  0  0  0  0  0  0  0  0  0
   14.2256    7.2920   -7.9008 S   0  0  0  0  0  0  0  0  0  0  0  0
   16.8973    5.0808   -7.7088 C   0  0  0  0  0  0  0  0  0  0  0  0
   17.9217    4.3510   -7.1271 C   0  0  0  0  0  0  0  0  0  0  0  0
   15.7336   -0.0339   -7.2357 C   0  0  0  0  0  0  0  0  0  0  0  0
   14.4552   -0.3975   -6.5028 C   0  0  1  0  0  0  0  0  0  0  0  0
   13.3409   -0.4516   -7.3892 O   0  0  0  0  0  0  0  0  0  0  0  0
   14.7950   -1.7673   -5.9509 C   0  0  0  0  0  0  0  0  0  0  0  0
   18.0686   -7.0264   -5.1226 C   0  0  0  0  0  0  0  0  0  0  0  0
   18.1554   -4.7622   -4.0578 H   0  0  0  0  0  0  0  0  0  0  0  0
   15.3655   -4.0224   -4.7663 H   0  0  0  0  0  0  0  0  0  0  0  0
   14.4752   -5.2609   -2.7250 H   0  0  0  0  0  0  0  0  0  0  0  0
   14.9973   -4.7698   -1.1144 H   0  0  0  0  0  0  0  0  0  0  0  0
   16.0929   -5.6670   -2.1599 H   0  0  0  0  0  0  0  0  0  0  0  0
   15.0129   -1.5506   -2.9538 H   0  0  0  0  0  0  0  0  0  0  0  0
   14.4279   -2.4025   -1.5339 H   0  0  0  0  0  0  0  0  0  0  0  0
   13.8244   -2.8576   -3.1188 H   0  0  0  0  0  0  0  0  0  0  0  0
   17.3757   -2.0869   -2.1539 H   0  0  0  0  0  0  0  0  0  0  0  0
   17.8759   -3.7571   -1.9071 H   0  0  0  0  0  0  0  0  0  0  0  0
   16.7415   -3.0096   -0.7961 H   0  0  0  0  0  0  0  0  0  0  0  0
   17.6545   -0.9829   -6.9011 H   0  0  0  0  0  0  0  0  0  0  0  0
   18.6914    1.0217   -6.9091 H   0  0  0  0  0  0  0  0  0  0  0  0
   18.7077    2.5699   -4.3841 H   0  0  0  0  0  0  0  0  0  0  0  0
   19.6990    2.8331   -5.8298 H   0  0  0  0  0  0  0  0  0  0  0  0
   16.2370    3.1463   -4.4455 H   0  0  0  0  0  0  0  0  0  0  0  0
   14.4274    4.3691   -5.5015 H   0  0  0  0  0  0  0  0  0  0  0  0
   12.4367    3.2516   -9.3273 H   0  0  0  0  0  0  0  0  0  0  0  0
   13.2387    2.9361   -7.7905 H   0  0  0  0  0  0  0  0  0  0  0  0
   14.2013    3.0877   -9.2652 H   0  0  0  0  0  0  0  0  0  0  0  0
   12.1047    7.8301   -8.9583 H   0  0  0  0  0  0  0  0  0  0  0  0
   17.0861    5.6306   -8.6266 H   0  0  0  0  0  0  0  0  0  0  0  0
   18.8918    4.3210   -7.6145 H   0  0  0  0  0  0  0  0  0  0  0  0
   15.8043    1.0418   -7.4280 H   0  0  0  0  0  0  0  0  0  0  0  0
   15.7632   -0.5306   -8.2132 H   0  0  0  0  0  0  0  0  0  0  0  0
   14.2527    0.3240   -5.7018 H   0  0  0  0  0  0  0  0  0  0  0  0
   12.5325   -0.3391   -6.8586 H   0  0  0  0  0  0  0  0  0  0  0  0
   14.7189   -2.5265   -6.7332 H   0  0  0  0  0  0  0  0  0  0  0  0
   14.1517   -2.0666   -5.1245 H   0  0  0  0  0  0  0  0  0  0  0  0
   17.9679   -7.6558   -6.0115 H   0  0  0  0  0  0  0  0  0  0  0  0
   18.0481   -7.6572   -4.2308 H   0  0  0  0  0  0  0  0  0  0  0  0
   19.0238   -6.4958   -5.1807 H   0  0  0  0  0  0  0  0  0  0  0  0
  1  2  2  0  0  0  0
  2  3  1  0  0  0  0
  2 33  1  0  0  0  0
  4  3  1  0  0  0  0
  3 34  1  0  0  0  0
  4  5  1  0  0  0  0
  4 35  1  0  0  0  0
  4  9  1  0  0  0  0
  5  6  1  0  0  0  0
  5  7  1  0  0  0  0
  5  8  1  0  0  0  0
  6 36  1  0  0  0  0
  6 37  1  0  0  0  0
  6 38  1  0  0  0  0
  7 39  1  0  0  0  0
  7 40  1  0  0  0  0
  7 41  1  0  0  0  0
  8 42  1  0  0  0  0
  8 43  1  0  0  0  0
  8 44  1  0  0  0  0
  9 10  2  0  0  0  0
  9 11  1  0  0  0  0
 11 32  1  0  0  0  0
 12 11  1  0  0  0  0
 12 29  1  0  0  0  0
 12 45  1  0  0  0  0
 12 13  1  0  0  0  0
 13 14  2  0  0  0  0
 13 15  1  0  0  0  0
 15 46  1  0  0  0  0
 15 16  1  0  0  0  0
 16 47  1  0  0  0  0
 16 48  1  0  0  0  0
 16 17  1  0  0  0  0
 17 18  1  0  0  0  0
 17 28  2  0  0  0  0
 18 49  1  0  0  0  0
 18 19  2  0  0  0  0
 19 50  1  0  0  0  0
 19 20  1  0  0  0  0
 20 27  2  0  0  0  0
 20 21  1  0  0  0  0
 21 22  2  0  0  0  0
 21 26  1  0  0  0  0
 22 23  1  0  0  0  0
 22 24  1  0  0  0  0
 23 51  1  0  0  0  0
 23 52  1  0  0  0  0
 23 53  1  0  0  0  0
 24 25  2  0  0  0  0
 25 54  1  0  0  0  0
 25 26  1  0  0  0  0
 27 55  1  0  0  0  0
 27 28  1  0  0  0  0
 28 56  1  0  0  0  0
 30 29  1  0  0  0  0
 29 57  1  0  0  0  0
 29 58  1  0  0  0  0
 30 32  1  0  0  0  0
 30 59  1  0  0  0  0
 30 31  1  0  0  0  0
 31 60  1  0  0  0  0
 32 61  1  0  0  0  0
 32 62  1  0  0  0  0
 33 63  1  0  0  0  0
 33 64  1  0  0  0  0
 33 65  1  0  0  0  0
M  ZZC   1 o1
M  ZZC   2 c1
M  ZZC   3 n1
M  ZZC   4 c2
M  ZZC   5 c3
M  ZZC   6 c4
M  ZZC   7 c5
M  ZZC   8 c6
M  ZZC   9 c7
M  ZZC  10 o2
M  ZZC  11 n2
M  ZZC  12 c8
M  ZZC  13 c9
M  ZZC  14 o3
M  ZZC  15 n3
M  ZZC  16 c10
M  ZZC  17 c11
M  ZZC  18 c12
M  ZZC  19 c13
M  ZZC  20 c14
M  ZZC  21 c15
M  ZZC  22 c16
M  ZZC  23 c17
M  ZZC  24 n4
M  ZZC  25 c18
M  ZZC  26 s1
M  ZZC  27 c19
M  ZZC  28 c20
M  ZZC  29 c21
M  ZZC  30 c22
M  ZZC  31 o4
M  ZZC  32 c23
M  ZZC  33 c24
M  ZZC  34 h11
M  ZZC  35 h21
M  ZZC  36 h41
M  ZZC  37 h42
M  ZZC  38 h43
M  ZZC  39 h51
M  ZZC  40 h52
M  ZZC  41 h53
M  ZZC  42 h61
M  ZZC  43 h62
M  ZZC  44 h63
M  ZZC  45 h81
M  ZZC  46 h31
M  ZZC  47 h101
M  ZZC  48 h102
M  ZZC  49 h121
M  ZZC  50 h131
M  ZZC  51 h171
M  ZZC  52 h172
M  ZZC  53 h173
M  ZZC  54 h181
M  ZZC  55 h191
M  ZZC  56 h201
M  ZZC  57 h211
M  ZZC  58 h212
M  ZZC  59 h221
M  ZZC  60 h01
M  ZZC  61 h231
M  ZZC  62 h232
M  ZZC  63 h241
M  ZZC  64 h242
M  ZZC  65 h243
M  ZZM   1 7
M  ZZI   1 81
M  ZZM   2 3
M  ZZI   2 121
M  ZZM   3 10
M  ZZI   3 211
M  ZZM   4 1
M  ZZI   4 113
M  ZZM   5 1
M  ZZI   5 110
M  ZZM   6 1
M  ZZI   6 111
M  ZZM   7 1
M  ZZI   7 111
M  ZZM   8 1
M  ZZI   8 111
M  ZZM   9 3
M  ZZI   9 121
M  ZZM  10 7
M  ZZI  10 81
M  ZZM  11 10
M  ZZI  11 192
M  ZZM  12 1
M  ZZI  12 113
M  ZZM  13 3
M  ZZI  13 121
M  ZZM  14 7
M  ZZI  14 81
M  ZZM  15 10
M  ZZI  15 211
M  ZZM  16 1
M  ZZI  16 112
M  ZZM  17 37
M  ZZI  17 124
M  ZZM  18 37
M  ZZI  18 125
M  ZZM  19 37
M  ZZI  19 125
M  ZZM  20 37
M  ZZI  20 124
M  ZZM  21 63
M  ZZI  21 104
M  ZZM  22 64
M  ZZI  22 105
M  ZZM  23 1
M  ZZI  23 111
M  ZZM  24 66
M  ZZI  24 222
M  ZZM  25 63
M  ZZI  25 104
M  ZZM  26 44
M  ZZI  26 248
M  ZZM  27 37
M  ZZI  27 125
M  ZZM  28 37
M  ZZI  28 125
M  ZZM  29 1
M  ZZI  29 112
M  ZZM  30 1
M  ZZI  30 113
M  ZZM  31 6
M  ZZI  31 60
M  ZZM  32 1
M  ZZI  32 112
M  ZZM  33 1
M  ZZI  33 111
M  ZZM  34 28
M  ZZI  34 11
M  ZZM  35 5
M  ZZI  35 1
M  ZZM  36 5
M  ZZI  36 1
M  ZZM  37 5
M  ZZI  37 1
M  ZZM  38 5
M  ZZI  38 1
M  ZZM  39 5
M  ZZI  39 1
M  ZZM  40 5
M  ZZI  40 1
M  ZZM  41 5
M  ZZI  41 1
M  ZZM  42 5
M  ZZI  42 1
M  ZZM  43 5
M  ZZI  43 1
M  ZZM  44 5
M  ZZI  44 1
M  ZZM  45 5
M  ZZI  45 1
M  ZZM  46 28
M  ZZI  46 11
M  ZZM  47 5
M  ZZI  47 1
M  ZZM  48 5
M  ZZI  48 1
M  ZZM  49 5
M  ZZI  49 1
M  ZZM  50 5
M  ZZI  50 1
M  ZZM  51 5
M  ZZI  51 1
M  ZZM  52 5
M  ZZI  52 1
M  ZZM  53 5
M  ZZI  53 1
M  ZZM  54 5
M  ZZI  54 1
M  ZZM  55 5
M  ZZI  55 1
M  ZZM  56 5
M  ZZI  56 1
M  ZZM  57 5
M  ZZI  57 1
M  ZZM  58 5
M  ZZI  58 1
M  ZZM  59 5
M  ZZI  59 1
M  ZZM  60 21
M  ZZI  60 20
M  ZZM  61 5
M  ZZI  61 1
M  ZZM  62 5
M  ZZI  62 1
M  ZZM  63 5
M  ZZI  63 1
M  ZZM  64 5
M  ZZI  64 1
M  ZZM  65 5
M  ZZI  65 1
M  END
> <IX>
1

> <NAME>
VHL_5WUK_1.pdb

> <Score>
-7.72491

> <Natom>
65

> <Nflex>
8

> <Hbond>
-6.24684

> <Hphob>
-6.838296

> <VwInt>
-28.33925

> <Dsolv>
21.745947

> <SolEl>
23.517546

> <Eintl>
7.282439

> <RecConf>
ND

> <projPath>
VHL_maps/

> <NAME_>
VHL_5WUK_1.pdb

$$$$
