VHL_5G0J_16.pdb
  MOLSOFT 04032206413D

 65 67  0  0  1  0  0  0  0  0999 V2000
   18.3872   -6.9325   -5.3458 C   0  0  0  0  0  0  0  0  0  0  0  0
   17.2041   -6.0047   -5.2931 C   0  0  0  0  0  0  0  0  0  0  0  0
   16.1028   -6.3748   -5.6670 O   0  0  0  0  0  0  0  0  0  0  0  0
   17.4949   -4.7577   -4.7726 N   0  0  0  0  0  0  0  0  0  0  0  0
   16.5169   -3.6711   -4.6559 C   0  0  1  0  0  0  0  0  0  0  0  0
   15.8932   -3.5474   -3.2278 C   0  0  0  0  0  0  0  0  0  0  0  0
   15.4163   -4.9164   -2.7178 C   0  0  0  0  0  0  0  0  0  0  0  0
   16.8926   -2.9870   -2.2035 C   0  0  0  0  0  0  0  0  0  0  0  0
   14.6663   -2.6222   -3.2606 C   0  0  0  0  0  0  0  0  0  0  0  0
   17.2087   -2.3768   -5.1266 C   0  0  0  0  0  0  0  0  0  0  0  0
   18.3590   -2.1203   -4.8018 O   0  0  0  0  0  0  0  0  0  0  0  0
   16.4677   -1.4633   -5.8775 N   0  0  0  0  0  0  0  0  0  0  0  0
   17.0280   -0.1639   -6.2289 C   0  0  2  0  0  0  0  0  0  0  0  0
   17.2033    0.8066   -5.0687 C   0  0  0  0  0  0  0  0  0  0  0  0
   16.5462    0.7582   -4.0377 O   0  0  0  0  0  0  0  0  0  0  0  0
   18.1072    1.8064   -5.3747 N   0  0  0  0  0  0  0  0  0  0  0  0
   18.2180    3.0116   -4.5873 C   0  0  0  0  0  0  0  0  0  0  0  0
   17.2781    4.0619   -5.1208 C   0  0  0  0  0  0  0  0  0  0  0  0
   17.5718    4.7471   -6.2968 C   0  0  0  0  0  0  0  0  0  0  0  0
   16.6946    5.6908   -6.8039 C   0  0  0  0  0  0  0  0  0  0  0  0
   15.5039    5.9783   -6.1455 C   0  0  0  0  0  0  0  0  0  0  0  0
   14.6178    7.0169   -6.6489 C   0  0  0  0  0  0  0  0  0  0  0  0
   13.9295    7.1308   -7.8503 C   0  0  0  0  0  0  0  0  0  0  0  0
   13.8863    6.1414   -8.9507 C   0  0  0  0  0  0  0  0  0  0  0  0
   13.2216    8.3061   -8.0056 N   0  0  0  0  0  0  0  0  0  0  0  0
   13.3732    9.0537   -6.9358 C   0  0  0  0  0  0  0  0  0  0  0  0
   14.3285    8.4085   -5.6827 S   0  0  0  0  0  0  0  0  0  0  0  0
   15.1967    5.2754   -4.9847 C   0  0  0  0  0  0  0  0  0  0  0  0
   16.0709    4.3269   -4.4818 C   0  0  0  0  0  0  0  0  0  0  0  0
   16.0391    0.4494   -7.2145 C   0  0  0  0  0  0  0  0  0  0  0  0
   15.3750   -0.7544   -7.8407 C   0  0  1  0  0  0  0  0  0  0  0  0
   16.1738   -1.2356   -8.9309 O   0  0  0  0  0  0  0  0  0  0  0  0
   15.3219   -1.7718   -6.7090 C   0  0  0  0  0  0  0  0  0  0  0  0
   19.3311   -6.3891   -5.2447 H   0  0  0  0  0  0  0  0  0  0  0  0
   18.3923   -7.4522   -6.3077 H   0  0  0  0  0  0  0  0  0  0  0  0
   18.3001   -7.6646   -4.5396 H   0  0  0  0  0  0  0  0  0  0  0  0
   18.4448   -4.5704   -4.4742 H   0  0  0  0  0  0  0  0  0  0  0  0
   15.7291   -3.9111   -5.3563 H   0  0  0  0  0  0  0  0  0  0  0  0
   14.9292   -4.8341   -1.7412 H   0  0  0  0  0  0  0  0  0  0  0  0
   16.2424   -5.6226   -2.5991 H   0  0  0  0  0  0  0  0  0  0  0  0
   14.6900   -5.3624   -3.4002 H   0  0  0  0  0  0  0  0  0  0  0  0
   16.4724   -2.9929   -1.1925 H   0  0  0  0  0  0  0  0  0  0  0  0
   17.1712   -1.9520   -2.4235 H   0  0  0  0  0  0  0  0  0  0  0  0
   17.8109   -3.5764   -2.1741 H   0  0  0  0  0  0  0  0  0  0  0  0
   14.9419   -1.6015   -3.5455 H   0  0  0  0  0  0  0  0  0  0  0  0
   14.1836   -2.5640   -2.2799 H   0  0  0  0  0  0  0  0  0  0  0  0
   13.9166   -2.9584   -3.9815 H   0  0  0  0  0  0  0  0  0  0  0  0
   18.0006   -0.3332   -6.6928 H   0  0  0  0  0  0  0  0  0  0  0  0
   18.6429    1.7545   -6.2347 H   0  0  0  0  0  0  0  0  0  0  0  0
   18.0053    2.7885   -3.5361 H   0  0  0  0  0  0  0  0  0  0  0  0
   19.2546    3.3597   -4.6476 H   0  0  0  0  0  0  0  0  0  0  0  0
   18.4982    4.5501   -6.8286 H   0  0  0  0  0  0  0  0  0  0  0  0
   16.9614    6.2230   -7.7128 H   0  0  0  0  0  0  0  0  0  0  0  0
   14.8798    5.9865   -9.3811 H   0  0  0  0  0  0  0  0  0  0  0  0
   13.2259    6.4828   -9.7533 H   0  0  0  0  0  0  0  0  0  0  0  0
   13.5218    5.1741   -8.5935 H   0  0  0  0  0  0  0  0  0  0  0  0
   12.9244   10.0290   -6.8373 H   0  0  0  0  0  0  0  0  0  0  0  0
   14.2650    5.4622   -4.4579 H   0  0  0  0  0  0  0  0  0  0  0  0
   15.8005    3.7876   -3.5782 H   0  0  0  0  0  0  0  0  0  0  0  0
   15.2901    1.0572   -6.6929 H   0  0  0  0  0  0  0  0  0  0  0  0
   16.5424    1.0885   -7.9479 H   0  0  0  0  0  0  0  0  0  0  0  0
   14.3814   -0.5183   -8.2213 H   0  0  0  0  0  0  0  0  0  0  0  0
   17.1077   -1.1814   -8.6551 H   0  0  0  0  0  0  0  0  0  0  0  0
   15.3833   -2.7960   -7.0843 H   0  0  0  0  0  0  0  0  0  0  0  0
   14.4234   -1.6426   -6.0973 H   0  0  0  0  0  0  0  0  0  0  0  0
  1 34  1  0  0  0  0
  1 35  1  0  0  0  0
  1 36  1  0  0  0  0
  1  2  1  0  0  0  0
  2  3  2  0  0  0  0
  2  4  1  0  0  0  0
  4 37  1  0  0  0  0
  5  4  1  0  0  0  0
  5 38  1  0  0  0  0
  5  6  1  0  0  0  0
  5 10  1  0  0  0  0
  6  7  1  0  0  0  0
  6  8  1  0  0  0  0
  6  9  1  0  0  0  0
  7 39  1  0  0  0  0
  7 40  1  0  0  0  0
  7 41  1  0  0  0  0
  8 42  1  0  0  0  0
  8 43  1  0  0  0  0
  8 44  1  0  0  0  0
  9 45  1  0  0  0  0
  9 46  1  0  0  0  0
  9 47  1  0  0  0  0
 10 11  2  0  0  0  0
 10 12  1  0  0  0  0
 12 33  1  0  0  0  0
 13 12  1  0  0  0  0
 13 30  1  0  0  0  0
 13 48  1  0  0  0  0
 13 14  1  0  0  0  0
 14 15  2  0  0  0  0
 14 16  1  0  0  0  0
 16 49  1  0  0  0  0
 16 17  1  0  0  0  0
 17 50  1  0  0  0  0
 17 51  1  0  0  0  0
 17 18  1  0  0  0  0
 18 19  1  0  0  0  0
 18 29  2  0  0  0  0
 19 52  1  0  0  0  0
 19 20  2  0  0  0  0
 20 53  1  0  0  0  0
 20 21  1  0  0  0  0
 21 28  2  0  0  0  0
 21 22  1  0  0  0  0
 22 23  2  0  0  0  0
 22 27  1  0  0  0  0
 23 24  1  0  0  0  0
 23 25  1  0  0  0  0
 24 54  1  0  0  0  0
 24 55  1  0  0  0  0
 24 56  1  0  0  0  0
 25 26  2  0  0  0  0
 26 57  1  0  0  0  0
 26 27  1  0  0  0  0
 28 58  1  0  0  0  0
 28 29  1  0  0  0  0
 29 59  1  0  0  0  0
 31 30  1  0  0  0  0
 30 60  1  0  0  0  0
 30 61  1  0  0  0  0
 31 33  1  0  0  0  0
 31 62  1  0  0  0  0
 31 32  1  0  0  0  0
 32 63  1  0  0  0  0
 33 64  1  0  0  0  0
 33 65  1  0  0  0  0
M  ZZC   1 c1
M  ZZC   2 c2
M  ZZC   3 o1
M  ZZC   4 n1
M  ZZC   5 c3
M  ZZC   6 c4
M  ZZC   7 c5
M  ZZC   8 c6
M  ZZC   9 c7
M  ZZC  10 c8
M  ZZC  11 o2
M  ZZC  12 n2
M  ZZC  13 c9
M  ZZC  14 c10
M  ZZC  15 o3
M  ZZC  16 n3
M  ZZC  17 c11
M  ZZC  18 c12
M  ZZC  19 c13
M  ZZC  20 c14
M  ZZC  21 c15
M  ZZC  22 c16
M  ZZC  23 c17
M  ZZC  24 c18
M  ZZC  25 n4
M  ZZC  26 c19
M  ZZC  27 s1
M  ZZC  28 c20
M  ZZC  29 c21
M  ZZC  30 c22
M  ZZC  31 c23
M  ZZC  32 o4
M  ZZC  33 c24
M  ZZC  34 h11
M  ZZC  35 h12
M  ZZC  36 h13
M  ZZC  37 h01
M  ZZC  38 h31
M  ZZC  39 h51
M  ZZC  40 h52
M  ZZC  41 h53
M  ZZC  42 h61
M  ZZC  43 h62
M  ZZC  44 h63
M  ZZC  45 h71
M  ZZC  46 h72
M  ZZC  47 h73
M  ZZC  48 h91
M  ZZC  49 h02
M  ZZC  50 h111
M  ZZC  51 h112
M  ZZC  52 h131
M  ZZC  53 h141
M  ZZC  54 h181
M  ZZC  55 h182
M  ZZC  56 h183
M  ZZC  57 h191
M  ZZC  58 h201
M  ZZC  59 h211
M  ZZC  60 h221
M  ZZC  61 h222
M  ZZC  62 h231
M  ZZC  63 h41
M  ZZC  64 h241
M  ZZC  65 h242
M  ZZM   1 1
M  ZZI   1 111
M  ZZM   2 3
M  ZZI   2 121
M  ZZM   3 7
M  ZZI   3 81
M  ZZM   4 10
M  ZZI   4 211
M  ZZM   5 1
M  ZZI   5 113
M  ZZM   6 1
M  ZZI   6 110
M  ZZM   7 1
M  ZZI   7 111
M  ZZM   8 1
M  ZZI   8 111
M  ZZM   9 1
M  ZZI   9 111
M  ZZM  10 3
M  ZZI  10 121
M  ZZM  11 7
M  ZZI  11 81
M  ZZM  12 10
M  ZZI  12 192
M  ZZM  13 1
M  ZZI  13 113
M  ZZM  14 3
M  ZZI  14 121
M  ZZM  15 7
M  ZZI  15 81
M  ZZM  16 10
M  ZZI  16 211
M  ZZM  17 1
M  ZZI  17 112
M  ZZM  18 37
M  ZZI  18 124
M  ZZM  19 37
M  ZZI  19 125
M  ZZM  20 37
M  ZZI  20 125
M  ZZM  21 37
M  ZZI  21 124
M  ZZM  22 63
M  ZZI  22 104
M  ZZM  23 64
M  ZZI  23 105
M  ZZM  24 1
M  ZZI  24 111
M  ZZM  25 66
M  ZZI  25 222
M  ZZM  26 63
M  ZZI  26 104
M  ZZM  27 44
M  ZZI  27 248
M  ZZM  28 37
M  ZZI  28 125
M  ZZM  29 37
M  ZZI  29 125
M  ZZM  30 1
M  ZZI  30 112
M  ZZM  31 1
M  ZZI  31 113
M  ZZM  32 6
M  ZZI  32 60
M  ZZM  33 1
M  ZZI  33 112
M  ZZM  34 5
M  ZZI  34 1
M  ZZM  35 5
M  ZZI  35 1
M  ZZM  36 5
M  ZZI  36 1
M  ZZM  37 28
M  ZZI  37 11
M  ZZM  38 5
M  ZZI  38 1
M  ZZM  39 5
M  ZZI  39 1
M  ZZM  40 5
M  ZZI  40 1
M  ZZM  41 5
M  ZZI  41 1
M  ZZM  42 5
M  ZZI  42 1
M  ZZM  43 5
M  ZZI  43 1
M  ZZM  44 5
M  ZZI  44 1
M  ZZM  45 5
M  ZZI  45 1
M  ZZM  46 5
M  ZZI  46 1
M  ZZM  47 5
M  ZZI  47 1
M  ZZM  48 5
M  ZZI  48 1
M  ZZM  49 28
M  ZZI  49 11
M  ZZM  50 5
M  ZZI  50 1
M  ZZM  51 5
M  ZZI  51 1
M  ZZM  52 5
M  ZZI  52 1
M  ZZM  53 5
M  ZZI  53 1
M  ZZM  54 5
M  ZZI  54 1
M  ZZM  55 5
M  ZZI  55 1
M  ZZM  56 5
M  ZZI  56 1
M  ZZM  57 5
M  ZZI  57 1
M  ZZM  58 5
M  ZZI  58 1
M  ZZM  59 5
M  ZZI  59 1
M  ZZM  60 5
M  ZZI  60 1
M  ZZM  61 5
M  ZZI  61 1
M  ZZM  62 5
M  ZZI  62 1
M  ZZM  63 21
M  ZZI  63 20
M  ZZM  64 5
M  ZZI  64 1
M  ZZM  65 5
M  ZZI  65 1
M  END
> <IX>
1

> <NAME>
VHL_5G0J_16.pdb

> <Score>
-24.060254

> <Natom>
65

> <Nflex>
8

> <Hbond>
-7.820996

> <Hphob>
-6.395756

> <VwInt>
-30.320046

> <Dsolv>
21.275476

> <SolEl>
10.417613

> <Eintl>
4.499729

> <RecConf>
ND

> <projPath>
VHL_maps/

> <NAME_>
VHL_5G0J_16.pdb

$$$$
