VHL_3K6P_9.pdb
  MOLSOFT 04032206373D

 61 63  0  0  1  0  0  0  0  0999 V2000
   17.6533   -4.3425   -5.1209 N   0  3  0  0  0  0  0  0  0  0  0  0
   16.5830   -3.2971   -4.9257 C   0  0  1  0  0  0  0  0  0  0  0  0
   15.9427   -3.4312   -3.5044 C   0  0  0  0  0  0  0  0  0  0  0  0
   16.8640   -2.8979   -2.3957 C   0  0  0  0  0  0  0  0  0  0  0  0
   15.6260   -4.8984   -3.1697 C   0  0  0  0  0  0  0  0  0  0  0  0
   14.6198   -2.6534   -3.4539 C   0  0  0  0  0  0  0  0  0  0  0  0
   17.1440   -1.8944   -5.2354 C   0  0  0  0  0  0  0  0  0  0  0  0
   18.2535   -1.5788   -4.8344 O   0  0  0  0  0  0  0  0  0  0  0  0
   16.3715   -0.9999   -5.9808 N   0  0  0  0  0  0  0  0  0  0  0  0
   16.8645    0.3569   -6.2422 C   0  0  2  0  0  0  0  0  0  0  0  0
   16.7338    1.2888   -5.0343 C   0  0  0  0  0  0  0  0  0  0  0  0
   17.5167    2.2109   -4.8577 O   0  0  0  0  0  0  0  0  0  0  0  0
   15.5814    1.1122   -4.2897 N   0  0  0  0  0  0  0  0  0  0  0  0
   15.2174    1.9695   -3.1791 C   0  0  0  0  0  0  0  0  0  0  0  0
   14.9880    1.1722   -1.9234 C   0  0  0  0  0  0  0  0  0  0  0  0
   13.7019    0.8791   -1.4809 C   0  0  0  0  0  0  0  0  0  0  0  0
   13.5052    0.1273   -0.3345 C   0  0  0  0  0  0  0  0  0  0  0  0
   14.5852   -0.3451    0.4010 C   0  0  0  0  0  0  0  0  0  0  0  0
   14.3691   -1.1110    1.6184 C   0  0  0  0  0  0  0  0  0  0  0  0
   13.8157   -0.7327    2.8341 C   0  0  0  0  0  0  0  0  0  0  0  0
   13.3480    0.6212    3.2175 C   0  0  0  0  0  0  0  0  0  0  0  0
   13.7307   -1.7405    3.7752 N   0  0  0  0  0  0  0  0  0  0  0  0
   14.2309   -2.8501    3.2807 C   0  0  0  0  0  0  0  0  0  0  0  0
   14.8337   -2.7647    1.6851 S   0  0  0  0  0  0  0  0  0  0  0  0
   15.8704   -0.0550   -0.0418 C   0  0  0  0  0  0  0  0  0  0  0  0
   16.0680    0.6925   -1.1900 C   0  0  0  0  0  0  0  0  0  0  0  0
   15.9980    0.8858   -7.3821 C   0  0  0  0  0  0  0  0  0  0  0  0
   15.3974   -0.3555   -8.0103 C   0  0  1  0  0  0  0  0  0  0  0  0
   16.2696   -0.8988   -9.0124 O   0  0  0  0  0  0  0  0  0  0  0  0
   15.2585   -1.3274   -6.8520 C   0  0  0  0  0  0  0  0  0  0  0  0
   18.2042   -4.1636   -5.9710 H   0  0  0  0  0  0  0  0  0  0  0  0
   17.2661   -5.2905   -5.2092 H   0  0  0  0  0  0  0  0  0  0  0  0
   18.3241   -4.3662   -4.3447 H   0  0  0  0  0  0  0  0  0  0  0  0
   15.8538   -3.5528   -5.6856 H   0  0  0  0  0  0  0  0  0  0  0  0
   16.4205   -3.0451   -1.4060 H   0  0  0  0  0  0  0  0  0  0  0  0
   17.0568   -1.8278   -2.5037 H   0  0  0  0  0  0  0  0  0  0  0  0
   17.8314   -3.4047   -2.3913 H   0  0  0  0  0  0  0  0  0  0  0  0
   15.0490   -4.9856   -2.2433 H   0  0  0  0  0  0  0  0  0  0  0  0
   16.5308   -5.4975   -3.0320 H   0  0  0  0  0  0  0  0  0  0  0  0
   15.0394   -5.3674   -3.9602 H   0  0  0  0  0  0  0  0  0  0  0  0
   14.7762   -1.5813   -3.6111 H   0  0  0  0  0  0  0  0  0  0  0  0
   14.1237   -2.7714   -2.4855 H   0  0  0  0  0  0  0  0  0  0  0  0
   13.9233   -2.9875   -4.2234 H   0  0  0  0  0  0  0  0  0  0  0  0
   17.9209    0.2998   -6.5270 H   0  0  0  0  0  0  0  0  0  0  0  0
   14.9474    0.3631   -4.5381 H   0  0  0  0  0  0  0  0  0  0  0  0
   15.9872    2.7293   -3.0082 H   0  0  0  0  0  0  0  0  0  0  0  0
   14.3045    2.5000   -3.4694 H   0  0  0  0  0  0  0  0  0  0  0  0
   12.8373    1.2390   -2.0304 H   0  0  0  0  0  0  0  0  0  0  0  0
   12.4927   -0.0941   -0.0130 H   0  0  0  0  0  0  0  0  0  0  0  0
   14.2011    1.2725    3.4271 H   0  0  0  0  0  0  0  0  0  0  0  0
   12.7273    0.5813    4.1177 H   0  0  0  0  0  0  0  0  0  0  0  0
   12.7538    1.0847    2.4248 H   0  0  0  0  0  0  0  0  0  0  0  0
   14.2648   -3.7694    3.8474 H   0  0  0  0  0  0  0  0  0  0  0  0
   16.7364   -0.4069    0.5114 H   0  0  0  0  0  0  0  0  0  0  0  0
   17.0836    0.9003   -1.5161 H   0  0  0  0  0  0  0  0  0  0  0  0
   15.1977    1.5334   -7.0066 H   0  0  0  0  0  0  0  0  0  0  0  0
   16.5897    1.4722   -8.0904 H   0  0  0  0  0  0  0  0  0  0  0  0
   14.4364   -0.1384   -8.4757 H   0  0  0  0  0  0  0  0  0  0  0  0
   17.1876   -0.8144   -8.6910 H   0  0  0  0  0  0  0  0  0  0  0  0
   15.2974   -2.3659   -7.1882 H   0  0  0  0  0  0  0  0  0  0  0  0
   14.3352   -1.1506   -6.2903 H   0  0  0  0  0  0  0  0  0  0  0  0
  1 31  1  0  0  0  0
  1 32  1  0  0  0  0
  1 33  1  0  0  0  0
  2  1  1  0  0  0  0
  2 34  1  0  0  0  0
  2  3  1  0  0  0  0
  2  7  1  0  0  0  0
  3  4  1  0  0  0  0
  3  5  1  0  0  0  0
  3  6  1  0  0  0  0
  4 35  1  0  0  0  0
  4 36  1  0  0  0  0
  4 37  1  0  0  0  0
  5 38  1  0  0  0  0
  5 39  1  0  0  0  0
  5 40  1  0  0  0  0
  6 41  1  0  0  0  0
  6 42  1  0  0  0  0
  6 43  1  0  0  0  0
  7  8  2  0  0  0  0
  7  9  1  0  0  0  0
  9 30  1  0  0  0  0
 10  9  1  0  0  0  0
 10 27  1  0  0  0  0
 10 44  1  0  0  0  0
 10 11  1  0  0  0  0
 11 12  2  0  0  0  0
 11 13  1  0  0  0  0
 13 45  1  0  0  0  0
 13 14  1  0  0  0  0
 14 46  1  0  0  0  0
 14 47  1  0  0  0  0
 14 15  1  0  0  0  0
 15 16  1  0  0  0  0
 15 26  2  0  0  0  0
 16 48  1  0  0  0  0
 16 17  2  0  0  0  0
 17 49  1  0  0  0  0
 17 18  1  0  0  0  0
 18 25  2  0  0  0  0
 18 19  1  0  0  0  0
 19 20  2  0  0  0  0
 19 24  1  0  0  0  0
 20 21  1  0  0  0  0
 20 22  1  0  0  0  0
 21 50  1  0  0  0  0
 21 51  1  0  0  0  0
 21 52  1  0  0  0  0
 22 23  2  0  0  0  0
 23 53  1  0  0  0  0
 23 24  1  0  0  0  0
 25 54  1  0  0  0  0
 25 26  1  0  0  0  0
 26 55  1  0  0  0  0
 28 27  1  0  0  0  0
 27 56  1  0  0  0  0
 27 57  1  0  0  0  0
 28 30  1  0  0  0  0
 28 58  1  0  0  0  0
 28 29  1  0  0  0  0
 29 59  1  0  0  0  0
 30 60  1  0  0  0  0
 30 61  1  0  0  0  0
M  ZZC   1 n1
M  ZZC   2 c1
M  ZZC   3 c2
M  ZZC   4 c3
M  ZZC   5 c4
M  ZZC   6 c5
M  ZZC   7 c6
M  ZZC   8 o1
M  ZZC   9 n2
M  ZZC  10 c7
M  ZZC  11 c8
M  ZZC  12 o2
M  ZZC  13 n3
M  ZZC  14 c9
M  ZZC  15 c10
M  ZZC  16 c11
M  ZZC  17 c12
M  ZZC  18 c13
M  ZZC  19 c14
M  ZZC  20 c15
M  ZZC  21 c16
M  ZZC  22 n4
M  ZZC  23 c17
M  ZZC  24 s1
M  ZZC  25 c18
M  ZZC  26 c19
M  ZZC  27 c20
M  ZZC  28 c21
M  ZZC  29 o3
M  ZZC  30 c22
M  ZZC  31 h11
M  ZZC  32 h12
M  ZZC  33 h13
M  ZZC  34 h01
M  ZZC  35 h31
M  ZZC  36 h32
M  ZZC  37 h33
M  ZZC  38 h41
M  ZZC  39 h42
M  ZZC  40 h43
M  ZZC  41 h51
M  ZZC  42 h52
M  ZZC  43 h53
M  ZZC  44 h71
M  ZZC  45 h02
M  ZZC  46 h91
M  ZZC  47 h92
M  ZZC  48 h111
M  ZZC  49 h121
M  ZZC  50 h161
M  ZZC  51 h162
M  ZZC  52 h163
M  ZZC  53 h171
M  ZZC  54 h181
M  ZZC  55 h191
M  ZZC  56 h201
M  ZZC  57 h202
M  ZZC  58 h211
M  ZZC  59 h03
M  ZZC  60 h221
M  ZZC  61 h222
M  ZZM   1 34
M  ZZI   1 231
M  ZZM   2 1
M  ZZI   2 113
M  ZZM   3 1
M  ZZI   3 110
M  ZZM   4 1
M  ZZI   4 111
M  ZZM   5 1
M  ZZI   5 111
M  ZZM   6 1
M  ZZI   6 111
M  ZZM   7 3
M  ZZI   7 121
M  ZZM   8 7
M  ZZI   8 81
M  ZZM   9 10
M  ZZI   9 192
M  ZZM  10 1
M  ZZI  10 113
M  ZZM  11 3
M  ZZI  11 121
M  ZZM  12 7
M  ZZI  12 81
M  ZZM  13 10
M  ZZI  13 211
M  ZZM  14 1
M  ZZI  14 112
M  ZZM  15 37
M  ZZI  15 124
M  ZZM  16 37
M  ZZI  16 125
M  ZZM  17 37
M  ZZI  17 125
M  ZZM  18 37
M  ZZI  18 124
M  ZZM  19 63
M  ZZI  19 104
M  ZZM  20 64
M  ZZI  20 105
M  ZZM  21 1
M  ZZI  21 111
M  ZZM  22 66
M  ZZI  22 222
M  ZZM  23 63
M  ZZI  23 104
M  ZZM  24 44
M  ZZI  24 248
M  ZZM  25 37
M  ZZI  25 125
M  ZZM  26 37
M  ZZI  26 125
M  ZZM  27 1
M  ZZI  27 112
M  ZZM  28 1
M  ZZI  28 113
M  ZZM  29 6
M  ZZI  29 60
M  ZZM  30 1
M  ZZI  30 112
M  ZZM  31 36
M  ZZI  31 17
M  ZZM  32 36
M  ZZI  32 17
M  ZZM  33 36
M  ZZI  33 17
M  ZZM  34 5
M  ZZI  34 1
M  ZZM  35 5
M  ZZI  35 1
M  ZZM  36 5
M  ZZI  36 1
M  ZZM  37 5
M  ZZI  37 1
M  ZZM  38 5
M  ZZI  38 1
M  ZZM  39 5
M  ZZI  39 1
M  ZZM  40 5
M  ZZI  40 1
M  ZZM  41 5
M  ZZI  41 1
M  ZZM  42 5
M  ZZI  42 1
M  ZZM  43 5
M  ZZI  43 1
M  ZZM  44 5
M  ZZI  44 1
M  ZZM  45 28
M  ZZI  45 11
M  ZZM  46 5
M  ZZI  46 1
M  ZZM  47 5
M  ZZI  47 1
M  ZZM  48 5
M  ZZI  48 1
M  ZZM  49 5
M  ZZI  49 1
M  ZZM  50 5
M  ZZI  50 1
M  ZZM  51 5
M  ZZI  51 1
M  ZZM  52 5
M  ZZI  52 1
M  ZZM  53 5
M  ZZI  53 1
M  ZZM  54 5
M  ZZI  54 1
M  ZZM  55 5
M  ZZI  55 1
M  ZZM  56 5
M  ZZI  56 1
M  ZZM  57 5
M  ZZI  57 1
M  ZZM  58 5
M  ZZI  58 1
M  ZZM  59 21
M  ZZI  59 20
M  ZZM  60 5
M  ZZI  60 1
M  ZZM  61 5
M  ZZI  61 1
M  CHG  1   1   1
M  END
> <IX>
1

> <NAME>
VHL_3K6P_9.pdb

> <Score>
-20.86177

> <Natom>
61

> <Nflex>
7

> <Hbond>
-7.682156

> <Hphob>
-5.872151

> <VwInt>
-24.226104

> <Dsolv>
15.476291

> <SolEl>
12.321706

> <Eintl>
4.658308

> <RecConf>
ND

> <projPath>
VHL_maps/

> <NAME_>
VHL_3K6P_9.pdb

$$$$
