VHL_4CI3_27.pdb
  MOLSOFT 04032206393D

 70 73  0  0  1  0  0  0  0  0999 V2000
   18.4799   -4.9788   -6.0713 F   0  0  0  0  0  0  0  0  0  0  0  0
   17.4361   -5.3618   -5.2369 C   0  0  0  0  0  0  0  0  0  0  0  0
   16.6314   -4.2553   -4.6316 C   0  0  0  0  0  0  0  0  0  0  0  0
   15.9789   -4.4378   -3.6124 O   0  0  0  0  0  0  0  0  0  0  0  0
   16.6693   -3.0583   -5.3265 N   0  0  0  0  0  0  0  0  0  0  0  0
   15.9240   -1.8594   -4.9222 C   0  0  1  0  0  0  0  0  0  0  0  0
   16.8082   -0.8374   -4.1353 C   0  0  0  0  0  0  0  0  0  0  0  0
   17.7599   -0.0822   -5.0760 C   0  0  0  0  0  0  0  0  0  0  0  0
   15.9524    0.2092   -3.4054 C   0  0  0  0  0  0  0  0  0  0  0  0
   17.6344   -1.5583   -3.0557 C   0  0  0  0  0  0  0  0  0  0  0  0
   15.3202   -1.2581   -6.2146 C   0  0  0  0  0  0  0  0  0  0  0  0
   15.8639   -1.4031   -7.3020 O   0  0  0  0  0  0  0  0  0  0  0  0
   14.1690   -0.4828   -6.0744 N   0  0  0  0  0  0  0  0  0  0  0  0
   13.6089    0.2897   -7.1881 C   0  0  2  0  0  0  0  0  0  0  0  0
   14.4033    1.5437   -7.5968 C   0  0  0  0  0  0  0  0  0  0  0  0
   15.6181    1.6227   -7.4861 O   0  0  0  0  0  0  0  0  0  0  0  0
   13.6505    2.5459   -8.1971 N   0  0  0  0  0  0  0  0  0  0  0  0
   14.2385    3.7637   -8.7128 C   0  0  0  0  0  0  0  0  0  0  0  0
   14.1201    4.9219   -7.7608 C   0  0  0  0  0  0  0  0  0  0  0  0
   13.2902    6.0066   -8.0167 C   0  0  0  0  0  0  0  0  0  0  0  0
   12.5120    5.9988   -9.1570 O   0  0  0  0  0  0  0  0  0  0  0  0
   13.1961    7.0784   -7.1432 C   0  0  0  0  0  0  0  0  0  0  0  0
   13.9301    7.0818   -5.9600 C   0  0  0  0  0  0  0  0  0  0  0  0
   13.8079    8.1760   -5.0031 C   0  0  0  0  0  0  0  0  0  0  0  0
   13.8940    9.5518   -5.1784 C   0  0  0  0  0  0  0  0  0  0  0  0
   14.1930   10.2700   -6.4377 C   0  0  0  0  0  0  0  0  0  0  0  0
   13.6789   10.3047   -4.0387 N   0  0  0  0  0  0  0  0  0  0  0  0
   13.5222    9.5052   -3.0072 C   0  0  0  0  0  0  0  0  0  0  0  0
   13.5045    7.8315   -3.3428 S   0  0  0  0  0  0  0  0  0  0  0  0
   14.7753    6.0047   -5.7058 C   0  0  0  0  0  0  0  0  0  0  0  0
   14.8720    4.9460   -6.5909 C   0  0  0  0  0  0  0  0  0  0  0  0
   12.2157    0.6563   -6.7044 C   0  0  0  0  0  0  0  0  0  0  0  0
   11.8529   -0.4614   -5.7733 C   0  0  1  0  0  0  0  0  0  0  0  0
   11.4716   -1.6118   -6.5273 O   0  0  0  0  0  0  0  0  0  0  0  0
   13.1593   -0.7245   -5.0583 C   0  0  0  0  0  0  0  0  0  0  0  0
   16.7508   -6.6426   -5.6399 C   0  0  0  0  0  0  0  0  0  0  0  0
   17.6882   -6.6433   -4.4800 C   0  0  0  0  0  0  0  0  0  0  0  0
   17.2152   -3.0033   -6.1811 H   0  0  0  0  0  0  0  0  0  0  0  0
   15.1236   -2.2099   -4.2668 H   0  0  0  0  0  0  0  0  0  0  0  0
   18.5116    0.4850   -4.5177 H   0  0  0  0  0  0  0  0  0  0  0  0
   17.2288    0.6391   -5.7012 H   0  0  0  0  0  0  0  0  0  0  0  0
   18.2790   -0.7633   -5.7529 H   0  0  0  0  0  0  0  0  0  0  0  0
   15.4224    0.8534   -4.1147 H   0  0  0  0  0  0  0  0  0  0  0  0
   16.5665    0.8605   -2.7751 H   0  0  0  0  0  0  0  0  0  0  0  0
   15.1850   -0.2505   -2.7770 H   0  0  0  0  0  0  0  0  0  0  0  0
   18.2340   -0.8542   -2.4694 H   0  0  0  0  0  0  0  0  0  0  0  0
   18.3310   -2.2820   -3.4844 H   0  0  0  0  0  0  0  0  0  0  0  0
   16.9907   -2.0958   -2.3522 H   0  0  0  0  0  0  0  0  0  0  0  0
   13.5561   -0.3738   -8.0510 H   0  0  0  0  0  0  0  0  0  0  0  0
   12.6388    2.4907   -8.2398 H   0  0  0  0  0  0  0  0  0  0  0  0
   15.2965    3.6018   -8.9154 H   0  0  0  0  0  0  0  0  0  0  0  0
   13.7537    3.9681   -9.6714 H   0  0  0  0  0  0  0  0  0  0  0  0
   12.4854    6.9077   -9.5083 H   0  0  0  0  0  0  0  0  0  0  0  0
   12.5108    7.8884   -7.3679 H   0  0  0  0  0  0  0  0  0  0  0  0
   15.1774    9.9864   -6.8207 H   0  0  0  0  0  0  0  0  0  0  0  0
   14.1923   11.3532   -6.2851 H   0  0  0  0  0  0  0  0  0  0  0  0
   13.4481   10.0383   -7.2010 H   0  0  0  0  0  0  0  0  0  0  0  0
   13.3813    9.8792   -2.0030 H   0  0  0  0  0  0  0  0  0  0  0  0
   15.3787    5.9768   -4.8035 H   0  0  0  0  0  0  0  0  0  0  0  0
   15.5447    4.1259   -6.3563 H   0  0  0  0  0  0  0  0  0  0  0  0
   12.2516    1.5930   -6.1447 H   0  0  0  0  0  0  0  0  0  0  0  0
   11.4997    0.7464   -7.5238 H   0  0  0  0  0  0  0  0  0  0  0  0
   11.0388   -0.1939   -5.0990 H   0  0  0  0  0  0  0  0  0  0  0  0
   10.9046   -1.3205   -7.2656 H   0  0  0  0  0  0  0  0  0  0  0  0
   13.2151   -1.7475   -4.6777 H   0  0  0  0  0  0  0  0  0  0  0  0
   13.3039   -0.0055   -4.2471 H   0  0  0  0  0  0  0  0  0  0  0  0
   15.6970   -6.7314   -5.4356 H   0  0  0  0  0  0  0  0  0  0  0  0
   17.0817   -7.1714   -6.5216 H   0  0  0  0  0  0  0  0  0  0  0  0
   18.6376   -7.1397   -4.6254 H   0  0  0  0  0  0  0  0  0  0  0  0
   17.2601   -6.7652   -3.4946 H   0  0  0  0  0  0  0  0  0  0  0  0
  2  1  1  0  0  0  0
  2 36  1  0  0  0  0
  2  3  1  0  0  0  0
  2 37  1  0  0  0  0
  3  4  2  0  0  0  0
  3  5  1  0  0  0  0
  5 38  1  0  0  0  0
  6  5  1  0  0  0  0
  6 39  1  0  0  0  0
  6  7  1  0  0  0  0
  6 11  1  0  0  0  0
  7  8  1  0  0  0  0
  7  9  1  0  0  0  0
  7 10  1  0  0  0  0
  8 40  1  0  0  0  0
  8 41  1  0  0  0  0
  8 42  1  0  0  0  0
  9 43  1  0  0  0  0
  9 44  1  0  0  0  0
  9 45  1  0  0  0  0
 10 46  1  0  0  0  0
 10 47  1  0  0  0  0
 10 48  1  0  0  0  0
 11 12  2  0  0  0  0
 11 13  1  0  0  0  0
 13 35  1  0  0  0  0
 14 13  1  0  0  0  0
 14 32  1  0  0  0  0
 14 49  1  0  0  0  0
 14 15  1  0  0  0  0
 15 16  2  0  0  0  0
 15 17  1  0  0  0  0
 17 50  1  0  0  0  0
 17 18  1  0  0  0  0
 18 51  1  0  0  0  0
 18 52  1  0  0  0  0
 18 19  1  0  0  0  0
 19 20  2  0  0  0  0
 19 31  1  0  0  0  0
 20 21  1  0  0  0  0
 20 22  1  0  0  0  0
 21 53  1  0  0  0  0
 22 54  1  0  0  0  0
 22 23  2  0  0  0  0
 23 30  1  0  0  0  0
 23 24  1  0  0  0  0
 24 25  2  0  0  0  0
 24 29  1  0  0  0  0
 25 26  1  0  0  0  0
 25 27  1  0  0  0  0
 26 55  1  0  0  0  0
 26 56  1  0  0  0  0
 26 57  1  0  0  0  0
 27 28  2  0  0  0  0
 28 58  1  0  0  0  0
 28 29  1  0  0  0  0
 30 59  1  0  0  0  0
 30 31  2  0  0  0  0
 31 60  1  0  0  0  0
 33 32  1  0  0  0  0
 32 61  1  0  0  0  0
 32 62  1  0  0  0  0
 33 35  1  0  0  0  0
 33 63  1  0  0  0  0
 33 34  1  0  0  0  0
 34 64  1  0  0  0  0
 35 65  1  0  0  0  0
 35 66  1  0  0  0  0
 36 67  1  0  0  0  0
 36 68  1  0  0  0  0
 36 37  1  0  0  0  0
 37 69  1  0  0  0  0
 37 70  1  0  0  0  0
M  ZZC   1 f1
M  ZZC   2 c1
M  ZZC   3 c2
M  ZZC   4 o1
M  ZZC   5 n1
M  ZZC   6 c3
M  ZZC   7 c4
M  ZZC   8 c5
M  ZZC   9 c6
M  ZZC  10 c7
M  ZZC  11 c8
M  ZZC  12 o2
M  ZZC  13 n2
M  ZZC  14 c9
M  ZZC  15 c10
M  ZZC  16 o3
M  ZZC  17 n3
M  ZZC  18 c11
M  ZZC  19 c12
M  ZZC  20 c13
M  ZZC  21 o4
M  ZZC  22 c14
M  ZZC  23 c15
M  ZZC  24 c16
M  ZZC  25 c17
M  ZZC  26 c18
M  ZZC  27 n4
M  ZZC  28 c19
M  ZZC  29 s1
M  ZZC  30 c20
M  ZZC  31 c21
M  ZZC  32 c22
M  ZZC  33 c23
M  ZZC  34 o5
M  ZZC  35 c24
M  ZZC  36 c25
M  ZZC  37 c26
M  ZZC  38 h11
M  ZZC  39 h31
M  ZZC  40 h51
M  ZZC  41 h52
M  ZZC  42 h53
M  ZZC  43 h61
M  ZZC  44 h62
M  ZZC  45 h63
M  ZZC  46 h71
M  ZZC  47 h72
M  ZZC  48 h73
M  ZZC  49 h91
M  ZZC  50 h01
M  ZZC  51 h111
M  ZZC  52 h112
M  ZZC  53 h41
M  ZZC  54 h141
M  ZZC  55 h181
M  ZZC  56 h182
M  ZZC  57 h183
M  ZZC  58 h191
M  ZZC  59 h201
M  ZZC  60 h211
M  ZZC  61 h221
M  ZZC  62 h222
M  ZZC  63 h231
M  ZZC  64 h02
M  ZZC  65 h241
M  ZZC  66 h242
M  ZZC  67 h251
M  ZZC  68 h252
M  ZZC  69 h261
M  ZZC  70 h262
M  ZZM   1 11
M  ZZI   1 90
M  ZZM   2 22
M  ZZI   2 109
M  ZZM   3 3
M  ZZI   3 121
M  ZZM   4 7
M  ZZI   4 81
M  ZZM   5 10
M  ZZI   5 211
M  ZZM   6 1
M  ZZI   6 113
M  ZZM   7 1
M  ZZI   7 110
M  ZZM   8 1
M  ZZI   8 111
M  ZZM   9 1
M  ZZI   9 111
M  ZZM  10 1
M  ZZI  10 111
M  ZZM  11 3
M  ZZI  11 121
M  ZZM  12 7
M  ZZI  12 81
M  ZZM  13 10
M  ZZI  13 192
M  ZZM  14 1
M  ZZI  14 113
M  ZZM  15 3
M  ZZI  15 121
M  ZZM  16 7
M  ZZI  16 81
M  ZZM  17 10
M  ZZI  17 211
M  ZZM  18 1
M  ZZI  18 112
M  ZZM  19 37
M  ZZI  19 124
M  ZZM  20 37
M  ZZI  20 124
M  ZZM  21 6
M  ZZI  21 62
M  ZZM  22 37
M  ZZI  22 125
M  ZZM  23 37
M  ZZI  23 124
M  ZZM  24 63
M  ZZI  24 104
M  ZZM  25 64
M  ZZI  25 105
M  ZZM  26 1
M  ZZI  26 111
M  ZZM  27 66
M  ZZI  27 222
M  ZZM  28 63
M  ZZI  28 104
M  ZZM  29 44
M  ZZI  29 248
M  ZZM  30 37
M  ZZI  30 125
M  ZZM  31 37
M  ZZI  31 125
M  ZZM  32 1
M  ZZI  32 112
M  ZZM  33 1
M  ZZI  33 113
M  ZZM  34 6
M  ZZI  34 60
M  ZZM  35 1
M  ZZI  35 112
M  ZZM  36 22
M  ZZI  36 109
M  ZZM  37 22
M  ZZI  37 109
M  ZZM  38 28
M  ZZI  38 11
M  ZZM  39 5
M  ZZI  39 1
M  ZZM  40 5
M  ZZI  40 1
M  ZZM  41 5
M  ZZI  41 1
M  ZZM  42 5
M  ZZI  42 1
M  ZZM  43 5
M  ZZI  43 1
M  ZZM  44 5
M  ZZI  44 1
M  ZZM  45 5
M  ZZI  45 1
M  ZZM  46 5
M  ZZI  46 1
M  ZZM  47 5
M  ZZI  47 1
M  ZZM  48 5
M  ZZI  48 1
M  ZZM  49 5
M  ZZI  49 1
M  ZZM  50 28
M  ZZI  50 11
M  ZZM  51 5
M  ZZI  51 1
M  ZZM  52 5
M  ZZI  52 1
M  ZZM  53 29
M  ZZI  53 27
M  ZZM  54 5
M  ZZI  54 1
M  ZZM  55 5
M  ZZI  55 1
M  ZZM  56 5
M  ZZI  56 1
M  ZZM  57 5
M  ZZI  57 1
M  ZZM  58 5
M  ZZI  58 1
M  ZZM  59 5
M  ZZI  59 1
M  ZZM  60 5
M  ZZI  60 1
M  ZZM  61 5
M  ZZI  61 1
M  ZZM  62 5
M  ZZI  62 1
M  ZZM  63 5
M  ZZI  63 1
M  ZZM  64 21
M  ZZI  64 20
M  ZZM  65 5
M  ZZI  65 1
M  ZZM  66 5
M  ZZI  66 1
M  ZZM  67 5
M  ZZI  67 1
M  ZZM  68 5
M  ZZI  68 1
M  ZZM  69 5
M  ZZI  69 1
M  ZZM  70 5
M  ZZI  70 1
M  END
> <IX>
1

> <NAME>
VHL_4CI3_27.pdb

> <Score>
-9.710474

> <Natom>
70

> <Nflex>
9

> <Hbond>
-10.968361

> <Hphob>
-6.246315

> <VwInt>
-24.384228

> <Dsolv>
25.511691

> <SolEl>
22.26907

> <Eintl>
12.295639

> <RecConf>
ND

> <projPath>
VHL_maps/

> <NAME_>
VHL_4CI3_27.pdb

$$$$
