VHL_5EHR_17.pdb
  MOLSOFT 04032206403D

 68 70  0  0  1  0  0  0  0  0999 V2000
   15.6778   -4.3355  -15.5736 C   0  0  0  0  0  0  0  0  0  0  0  0
   15.1931   -3.7762  -16.8778 C   0  0  0  0  0  0  0  0  0  0  0  0
   15.3438   -4.3764  -17.9315 O   0  0  0  0  0  0  0  0  0  0  0  0
   14.6182   -2.5268  -16.7540 N   0  0  0  0  0  0  0  0  0  0  0  0
   14.1302   -1.7878  -17.9223 C   0  0  2  0  0  0  0  0  0  0  0  0
   15.1177   -0.6690  -18.3786 C   0  0  0  0  0  0  0  0  0  0  0  0
   14.6228   -0.0077  -19.6739 C   0  0  0  0  0  0  0  0  0  0  0  0
   16.5011   -1.2749  -18.6692 C   0  0  0  0  0  0  0  0  0  0  0  0
   15.2816    0.4343  -17.3198 C   0  0  0  0  0  0  0  0  0  0  0  0
   12.7521   -1.2271  -17.5433 C   0  0  0  0  0  0  0  0  0  0  0  0
   12.5945   -0.6145  -16.4966 O   0  0  0  0  0  0  0  0  0  0  0  0
   11.7023   -1.4222  -18.4413 N   0  0  0  0  0  0  0  0  0  0  0  0
   10.4538   -0.6763  -18.3112 C   0  0  2  0  0  0  0  0  0  0  0  0
    9.5625   -1.0981  -17.1349 C   0  0  0  0  0  0  0  0  0  0  0  0
    9.8744   -1.9616  -16.3271 O   0  0  0  0  0  0  0  0  0  0  0  0
    8.3995   -0.3528  -17.0620 N   0  0  0  0  0  0  0  0  0  0  0  0
    7.3817   -0.5264  -16.0399 C   0  0  1  0  0  0  0  0  0  0  0  0
    7.7601    0.2189  -14.7605 C   0  0  0  0  0  0  0  0  0  0  0  0
    6.0363   -0.0896  -16.5906 C   0  0  0  0  0  0  0  0  0  0  0  0
    5.7920    1.2263  -16.9896 C   0  0  0  0  0  0  0  0  0  0  0  0
    4.5970    1.5829  -17.5942 C   0  0  0  0  0  0  0  0  0  0  0  0
    3.6033    0.6366  -17.8068 C   0  0  0  0  0  0  0  0  0  0  0  0
    2.3708    0.9912  -18.4927 C   0  0  0  0  0  0  0  0  0  0  0  0
    2.0624    0.9849  -19.8456 C   0  0  0  0  0  0  0  0  0  0  0  0
    2.9715    0.6214  -20.9562 C   0  0  0  0  0  0  0  0  0  0  0  0
    0.7663    1.3576  -20.1497 N   0  0  0  0  0  0  0  0  0  0  0  0
    0.1280    1.6785  -19.0463 C   0  0  0  0  0  0  0  0  0  0  0  0
    1.0044    1.5073  -17.5919 S   0  0  0  0  0  0  0  0  0  0  0  0
    3.8217   -0.6655  -17.3741 C   0  0  0  0  0  0  0  0  0  0  0  0
    5.0201   -1.0232  -16.7771 C   0  0  0  0  0  0  0  0  0  0  0  0
    9.7548   -0.8777  -19.6546 C   0  0  0  0  0  0  0  0  0  0  0  0
   10.2752   -2.2209  -20.1282 C   0  0  1  0  0  0  0  0  0  0  0  0
   10.1763   -2.3438  -21.5455 O   0  0  0  0  0  0  0  0  0  0  0  0
   11.7210   -2.1979  -19.6692 C   0  0  0  0  0  0  0  0  0  0  0  0
   14.8937   -4.2760  -14.8162 H   0  0  0  0  0  0  0  0  0  0  0  0
   16.5499   -3.7647  -15.2483 H   0  0  0  0  0  0  0  0  0  0  0  0
   15.9609   -5.3843  -15.7013 H   0  0  0  0  0  0  0  0  0  0  0  0
   14.5101   -2.1103  -15.8293 H   0  0  0  0  0  0  0  0  0  0  0  0
   14.0227   -2.5090  -18.7355 H   0  0  0  0  0  0  0  0  0  0  0  0
   15.3132    0.7703  -20.0141 H   0  0  0  0  0  0  0  0  0  0  0  0
   13.6474    0.4685  -19.5299 H   0  0  0  0  0  0  0  0  0  0  0  0
   14.5053   -0.7318  -20.4860 H   0  0  0  0  0  0  0  0  0  0  0  0
   16.9675   -1.6834  -17.7678 H   0  0  0  0  0  0  0  0  0  0  0  0
   17.1909   -0.5250  -19.0700 H   0  0  0  0  0  0  0  0  0  0  0  0
   16.4378   -2.0819  -19.4061 H   0  0  0  0  0  0  0  0  0  0  0  0
   14.3810    1.0459  -17.2305 H   0  0  0  0  0  0  0  0  0  0  0  0
   16.0941    1.1199  -17.5803 H   0  0  0  0  0  0  0  0  0  0  0  0
   15.5022    0.0233  -16.3303 H   0  0  0  0  0  0  0  0  0  0  0  0
   10.7009    0.3791  -18.1708 H   0  0  0  0  0  0  0  0  0  0  0  0
    8.2574    0.3891  -17.7367 H   0  0  0  0  0  0  0  0  0  0  0  0
    7.3462   -1.5947  -15.8003 H   0  0  0  0  0  0  0  0  0  0  0  0
    8.7026   -0.1569  -14.3496 H   0  0  0  0  0  0  0  0  0  0  0  0
    6.9890    0.1052  -13.9920 H   0  0  0  0  0  0  0  0  0  0  0  0
    7.8982    1.2882  -14.9436 H   0  0  0  0  0  0  0  0  0  0  0  0
    6.5527    1.9892  -16.8574 H   0  0  0  0  0  0  0  0  0  0  0  0
    4.4436    2.6106  -17.9105 H   0  0  0  0  0  0  0  0  0  0  0  0
    3.8218    1.3080  -21.0005 H   0  0  0  0  0  0  0  0  0  0  0  0
    2.4555    0.6666  -21.9198 H   0  0  0  0  0  0  0  0  0  0  0  0
    3.3537   -0.3954  -20.8295 H   0  0  0  0  0  0  0  0  0  0  0  0
   -0.8953    2.0252  -19.0480 H   0  0  0  0  0  0  0  0  0  0  0  0
    3.0583   -1.4240  -17.5207 H   0  0  0  0  0  0  0  0  0  0  0  0
    5.1657   -2.0580  -16.4791 H   0  0  0  0  0  0  0  0  0  0  0  0
    8.6610   -0.8639  -19.6161 H   0  0  0  0  0  0  0  0  0  0  0  0
   10.0515   -0.0921  -20.3598 H   0  0  0  0  0  0  0  0  0  0  0  0
    9.7293   -3.0445  -19.6532 H   0  0  0  0  0  0  0  0  0  0  0  0
    9.2311   -2.3205  -21.7770 H   0  0  0  0  0  0  0  0  0  0  0  0
   12.3648   -1.6973  -20.3989 H   0  0  0  0  0  0  0  0  0  0  0  0
   12.1233   -3.2019  -19.5085 H   0  0  0  0  0  0  0  0  0  0  0  0
  1 35  1  0  0  0  0
  1 36  1  0  0  0  0
  1 37  1  0  0  0  0
  1  2  1  0  0  0  0
  2  3  2  0  0  0  0
  2  4  1  0  0  0  0
  4 38  1  0  0  0  0
  5  4  1  0  0  0  0
  5 39  1  0  0  0  0
  5  6  1  0  0  0  0
  5 10  1  0  0  0  0
  6  7  1  0  0  0  0
  6  8  1  0  0  0  0
  6  9  1  0  0  0  0
  7 40  1  0  0  0  0
  7 41  1  0  0  0  0
  7 42  1  0  0  0  0
  8 43  1  0  0  0  0
  8 44  1  0  0  0  0
  8 45  1  0  0  0  0
  9 46  1  0  0  0  0
  9 47  1  0  0  0  0
  9 48  1  0  0  0  0
 10 11  2  0  0  0  0
 10 12  1  0  0  0  0
 12 34  1  0  0  0  0
 13 12  1  0  0  0  0
 13 31  1  0  0  0  0
 13 49  1  0  0  0  0
 13 14  1  0  0  0  0
 14 15  2  0  0  0  0
 14 16  1  0  0  0  0
 16 50  1  0  0  0  0
 17 16  1  0  0  0  0
 17 51  1  0  0  0  0
 17 18  1  0  0  0  0
 17 19  1  0  0  0  0
 18 52  1  0  0  0  0
 18 53  1  0  0  0  0
 18 54  1  0  0  0  0
 19 20  1  0  0  0  0
 19 30  2  0  0  0  0
 20 55  1  0  0  0  0
 20 21  2  0  0  0  0
 21 56  1  0  0  0  0
 21 22  1  0  0  0  0
 22 29  2  0  0  0  0
 22 23  1  0  0  0  0
 23 24  2  0  0  0  0
 23 28  1  0  0  0  0
 24 25  1  0  0  0  0
 24 26  1  0  0  0  0
 25 57  1  0  0  0  0
 25 58  1  0  0  0  0
 25 59  1  0  0  0  0
 26 27  2  0  0  0  0
 27 60  1  0  0  0  0
 27 28  1  0  0  0  0
 29 61  1  0  0  0  0
 29 30  1  0  0  0  0
 30 62  1  0  0  0  0
 32 31  1  0  0  0  0
 31 63  1  0  0  0  0
 31 64  1  0  0  0  0
 32 34  1  0  0  0  0
 32 65  1  0  0  0  0
 32 33  1  0  0  0  0
 33 66  1  0  0  0  0
 34 67  1  0  0  0  0
 34 68  1  0  0  0  0
M  ZZC   1 c1
M  ZZC   2 c2
M  ZZC   3 o1
M  ZZC   4 n1
M  ZZC   5 c3
M  ZZC   6 c4
M  ZZC   7 c5
M  ZZC   8 c6
M  ZZC   9 c7
M  ZZC  10 c8
M  ZZC  11 o2
M  ZZC  12 n2
M  ZZC  13 c9
M  ZZC  14 c10
M  ZZC  15 o3
M  ZZC  16 n3
M  ZZC  17 c11
M  ZZC  18 c12
M  ZZC  19 c13
M  ZZC  20 c14
M  ZZC  21 c15
M  ZZC  22 c16
M  ZZC  23 c17
M  ZZC  24 c18
M  ZZC  25 c19
M  ZZC  26 n4
M  ZZC  27 c20
M  ZZC  28 s1
M  ZZC  29 c21
M  ZZC  30 c22
M  ZZC  31 c23
M  ZZC  32 c24
M  ZZC  33 o4
M  ZZC  34 c25
M  ZZC  35 h11
M  ZZC  36 h12
M  ZZC  37 h13
M  ZZC  38 h01
M  ZZC  39 h31
M  ZZC  40 h51
M  ZZC  41 h52
M  ZZC  42 h53
M  ZZC  43 h61
M  ZZC  44 h62
M  ZZC  45 h63
M  ZZC  46 h71
M  ZZC  47 h72
M  ZZC  48 h73
M  ZZC  49 h91
M  ZZC  50 h02
M  ZZC  51 h111
M  ZZC  52 h121
M  ZZC  53 h122
M  ZZC  54 h123
M  ZZC  55 h141
M  ZZC  56 h151
M  ZZC  57 h191
M  ZZC  58 h192
M  ZZC  59 h193
M  ZZC  60 h201
M  ZZC  61 h211
M  ZZC  62 h221
M  ZZC  63 h231
M  ZZC  64 h232
M  ZZC  65 h241
M  ZZC  66 h41
M  ZZC  67 h251
M  ZZC  68 h252
M  ZZM   1 1
M  ZZI   1 111
M  ZZM   2 3
M  ZZI   2 121
M  ZZM   3 7
M  ZZI   3 81
M  ZZM   4 10
M  ZZI   4 211
M  ZZM   5 1
M  ZZI   5 113
M  ZZM   6 1
M  ZZI   6 110
M  ZZM   7 1
M  ZZI   7 111
M  ZZM   8 1
M  ZZI   8 111
M  ZZM   9 1
M  ZZI   9 111
M  ZZM  10 3
M  ZZI  10 121
M  ZZM  11 7
M  ZZI  11 81
M  ZZM  12 10
M  ZZI  12 192
M  ZZM  13 1
M  ZZI  13 113
M  ZZM  14 3
M  ZZI  14 121
M  ZZM  15 7
M  ZZI  15 81
M  ZZM  16 10
M  ZZI  16 211
M  ZZM  17 1
M  ZZI  17 113
M  ZZM  18 1
M  ZZI  18 111
M  ZZM  19 37
M  ZZI  19 124
M  ZZM  20 37
M  ZZI  20 125
M  ZZM  21 37
M  ZZI  21 125
M  ZZM  22 37
M  ZZI  22 124
M  ZZM  23 63
M  ZZI  23 104
M  ZZM  24 64
M  ZZI  24 105
M  ZZM  25 1
M  ZZI  25 111
M  ZZM  26 66
M  ZZI  26 222
M  ZZM  27 63
M  ZZI  27 104
M  ZZM  28 44
M  ZZI  28 248
M  ZZM  29 37
M  ZZI  29 125
M  ZZM  30 37
M  ZZI  30 125
M  ZZM  31 1
M  ZZI  31 112
M  ZZM  32 1
M  ZZI  32 113
M  ZZM  33 6
M  ZZI  33 60
M  ZZM  34 1
M  ZZI  34 112
M  ZZM  35 5
M  ZZI  35 1
M  ZZM  36 5
M  ZZI  36 1
M  ZZM  37 5
M  ZZI  37 1
M  ZZM  38 28
M  ZZI  38 11
M  ZZM  39 5
M  ZZI  39 1
M  ZZM  40 5
M  ZZI  40 1
M  ZZM  41 5
M  ZZI  41 1
M  ZZM  42 5
M  ZZI  42 1
M  ZZM  43 5
M  ZZI  43 1
M  ZZM  44 5
M  ZZI  44 1
M  ZZM  45 5
M  ZZI  45 1
M  ZZM  46 5
M  ZZI  46 1
M  ZZM  47 5
M  ZZI  47 1
M  ZZM  48 5
M  ZZI  48 1
M  ZZM  49 5
M  ZZI  49 1
M  ZZM  50 28
M  ZZI  50 11
M  ZZM  51 5
M  ZZI  51 1
M  ZZM  52 5
M  ZZI  52 1
M  ZZM  53 5
M  ZZI  53 1
M  ZZM  54 5
M  ZZI  54 1
M  ZZM  55 5
M  ZZI  55 1
M  ZZM  56 5
M  ZZI  56 1
M  ZZM  57 5
M  ZZI  57 1
M  ZZM  58 5
M  ZZI  58 1
M  ZZM  59 5
M  ZZI  59 1
M  ZZM  60 5
M  ZZI  60 1
M  ZZM  61 5
M  ZZI  61 1
M  ZZM  62 5
M  ZZI  62 1
M  ZZM  63 5
M  ZZI  63 1
M  ZZM  64 5
M  ZZI  64 1
M  ZZM  65 5
M  ZZI  65 1
M  ZZM  66 21
M  ZZI  66 20
M  ZZM  67 5
M  ZZI  67 1
M  ZZM  68 5
M  ZZI  68 1
M  END
> <IX>
1

> <NAME>
VHL_5EHR_17.pdb

> <Score>
-16.239746

> <Natom>
68

> <Nflex>
8

> <Hbond>
-3.955558

> <Hphob>
-6.30439

> <VwInt>
-30.17866

> <Dsolv>
15.670805

> <SolEl>
11.918911

> <Eintl>
6.251386

> <RecConf>
ND

> <projPath>
VHL_maps/

> <NAME_>
VHL_5EHR_17.pdb

$$$$
