VHL_5EHR_7.pdb
  MOLSOFT 04032206413D

 68 70  0  0  1  0  0  0  0  0999 V2000
   18.4484    2.7374   -4.6131 C   0  0  0  0  0  0  0  0  0  0  0  0
   18.1718    1.3294   -5.0600 C   0  0  0  0  0  0  0  0  0  0  0  0
   19.0678    0.5479   -5.3443 O   0  0  0  0  0  0  0  0  0  0  0  0
   16.8214    1.0468   -5.1167 N   0  0  0  0  0  0  0  0  0  0  0  0
   16.3091   -0.2520   -5.5540 C   0  0  2  0  0  0  0  0  0  0  0  0
   15.5172   -0.1565   -6.8898 C   0  0  0  0  0  0  0  0  0  0  0  0
   15.1689   -1.5707   -7.3557 C   0  0  0  0  0  0  0  0  0  0  0  0
   14.2154    0.6594   -6.7798 C   0  0  0  0  0  0  0  0  0  0  0  0
   16.3887    0.4954   -7.9715 C   0  0  0  0  0  0  0  0  0  0  0  0
   15.4684   -0.8080   -4.3901 C   0  0  0  0  0  0  0  0  0  0  0  0
   14.5872   -0.1359   -3.8682 O   0  0  0  0  0  0  0  0  0  0  0  0
   15.7572   -2.0976   -3.9405 N   0  0  0  0  0  0  0  0  0  0  0  0
   14.9927   -2.7040   -2.8575 C   0  0  2  0  0  0  0  0  0  0  0  0
   15.4226   -2.0735   -1.5274 C   0  0  0  0  0  0  0  0  0  0  0  0
   16.5926   -1.8334   -1.2593 O   0  0  0  0  0  0  0  0  0  0  0  0
   14.3730   -1.8120   -0.6650 N   0  0  0  0  0  0  0  0  0  0  0  0
   14.5605   -1.1164    0.6014 C   0  0  1  0  0  0  0  0  0  0  0  0
   13.5145   -0.0080    0.7111 C   0  0  0  0  0  0  0  0  0  0  0  0
   14.5966   -2.0927    1.7669 C   0  0  0  0  0  0  0  0  0  0  0  0
   13.6218   -2.1436    2.7642 C   0  0  0  0  0  0  0  0  0  0  0  0
   13.7068   -3.0517    3.8077 C   0  0  0  0  0  0  0  0  0  0  0  0
   14.7598   -3.9559    3.8953 C   0  0  0  0  0  0  0  0  0  0  0  0
   14.8200   -4.9524    4.9649 C   0  0  0  0  0  0  0  0  0  0  0  0
   13.8328   -5.7634    5.5188 C   0  0  0  0  0  0  0  0  0  0  0  0
   12.4006   -5.8343    5.1441 C   0  0  0  0  0  0  0  0  0  0  0  0
   14.2597   -6.6037    6.5278 N   0  0  0  0  0  0  0  0  0  0  0  0
   15.5450   -6.4347    6.7341 C   0  0  0  0  0  0  0  0  0  0  0  0
   16.3179   -5.2725    5.7552 S   0  0  0  0  0  0  0  0  0  0  0  0
   15.7421   -3.8961    2.9118 C   0  0  0  0  0  0  0  0  0  0  0  0
   15.6609   -2.9843    1.8755 C   0  0  0  0  0  0  0  0  0  0  0  0
   15.3612   -4.1800   -2.9128 C   0  0  0  0  0  0  0  0  0  0  0  0
   16.7844   -4.1654   -3.4416 C   0  0  1  0  0  0  0  0  0  0  0  0
   17.1045   -5.3971   -4.0850 O   0  0  0  0  0  0  0  0  0  0  0  0
   16.7955   -2.9963   -4.4149 C   0  0  0  0  0  0  0  0  0  0  0  0
   17.9180    3.4456   -5.2572 H   0  0  0  0  0  0  0  0  0  0  0  0
   19.5218    2.9404   -4.6737 H   0  0  0  0  0  0  0  0  0  0  0  0
   18.1192    2.8667   -3.5777 H   0  0  0  0  0  0  0  0  0  0  0  0
   16.1543    1.7440   -4.8002 H   0  0  0  0  0  0  0  0  0  0  0  0
   17.1764   -0.8955   -5.7171 H   0  0  0  0  0  0  0  0  0  0  0  0
   14.6966   -1.5632   -8.3375 H   0  0  0  0  0  0  0  0  0  0  0  0
   14.4824   -2.0584   -6.6613 H   0  0  0  0  0  0  0  0  0  0  0  0
   16.0604   -2.1965   -7.4356 H   0  0  0  0  0  0  0  0  0  0  0  0
   13.4772    0.1765   -6.1326 H   0  0  0  0  0  0  0  0  0  0  0  0
   13.7395    0.7754   -7.7591 H   0  0  0  0  0  0  0  0  0  0  0  0
   14.3956    1.6662   -6.3911 H   0  0  0  0  0  0  0  0  0  0  0  0
   16.6250    1.5377   -7.7375 H   0  0  0  0  0  0  0  0  0  0  0  0
   15.8842    0.4935   -8.9392 H   0  0  0  0  0  0  0  0  0  0  0  0
   17.3303   -0.0413   -8.1037 H   0  0  0  0  0  0  0  0  0  0  0  0
   13.9206   -2.5432   -3.0210 H   0  0  0  0  0  0  0  0  0  0  0  0
   13.4341   -2.1038   -0.9115 H   0  0  0  0  0  0  0  0  0  0  0  0
   15.5355   -0.6170    0.5755 H   0  0  0  0  0  0  0  0  0  0  0  0
   13.6321    0.5691    1.6338 H   0  0  0  0  0  0  0  0  0  0  0  0
   12.4969   -0.4101    0.6852 H   0  0  0  0  0  0  0  0  0  0  0  0
   13.5990    0.6890   -0.1289 H   0  0  0  0  0  0  0  0  0  0  0  0
   12.7709   -1.4704    2.7490 H   0  0  0  0  0  0  0  0  0  0  0  0
   12.9298   -3.0406    4.5654 H   0  0  0  0  0  0  0  0  0  0  0  0
   11.8282   -5.0717    5.6787 H   0  0  0  0  0  0  0  0  0  0  0  0
   11.9786   -6.8112    5.3976 H   0  0  0  0  0  0  0  0  0  0  0  0
   12.2555   -5.6857    4.0716 H   0  0  0  0  0  0  0  0  0  0  0  0
   16.0894   -6.9956    7.4804 H   0  0  0  0  0  0  0  0  0  0  0  0
   16.5850   -4.5808    2.9260 H   0  0  0  0  0  0  0  0  0  0  0  0
   16.4531   -2.9791    1.1328 H   0  0  0  0  0  0  0  0  0  0  0  0
   15.2852   -4.6896   -1.9463 H   0  0  0  0  0  0  0  0  0  0  0  0
   14.7084   -4.7175   -3.6085 H   0  0  0  0  0  0  0  0  0  0  0  0
   17.4880   -3.9958   -2.6205 H   0  0  0  0  0  0  0  0  0  0  0  0
   18.0560   -5.3677   -4.2965 H   0  0  0  0  0  0  0  0  0  0  0  0
   16.5655   -3.3104   -5.4374 H   0  0  0  0  0  0  0  0  0  0  0  0
   17.7670   -2.4929   -4.4231 H   0  0  0  0  0  0  0  0  0  0  0  0
  1 35  1  0  0  0  0
  1 36  1  0  0  0  0
  1 37  1  0  0  0  0
  1  2  1  0  0  0  0
  2  3  2  0  0  0  0
  2  4  1  0  0  0  0
  4 38  1  0  0  0  0
  5  4  1  0  0  0  0
  5 39  1  0  0  0  0
  5  6  1  0  0  0  0
  5 10  1  0  0  0  0
  6  7  1  0  0  0  0
  6  8  1  0  0  0  0
  6  9  1  0  0  0  0
  7 40  1  0  0  0  0
  7 41  1  0  0  0  0
  7 42  1  0  0  0  0
  8 43  1  0  0  0  0
  8 44  1  0  0  0  0
  8 45  1  0  0  0  0
  9 46  1  0  0  0  0
  9 47  1  0  0  0  0
  9 48  1  0  0  0  0
 10 11  2  0  0  0  0
 10 12  1  0  0  0  0
 12 34  1  0  0  0  0
 13 12  1  0  0  0  0
 13 31  1  0  0  0  0
 13 49  1  0  0  0  0
 13 14  1  0  0  0  0
 14 15  2  0  0  0  0
 14 16  1  0  0  0  0
 16 50  1  0  0  0  0
 17 16  1  0  0  0  0
 17 51  1  0  0  0  0
 17 18  1  0  0  0  0
 17 19  1  0  0  0  0
 18 52  1  0  0  0  0
 18 53  1  0  0  0  0
 18 54  1  0  0  0  0
 19 20  1  0  0  0  0
 19 30  2  0  0  0  0
 20 55  1  0  0  0  0
 20 21  2  0  0  0  0
 21 56  1  0  0  0  0
 21 22  1  0  0  0  0
 22 29  2  0  0  0  0
 22 23  1  0  0  0  0
 23 24  2  0  0  0  0
 23 28  1  0  0  0  0
 24 25  1  0  0  0  0
 24 26  1  0  0  0  0
 25 57  1  0  0  0  0
 25 58  1  0  0  0  0
 25 59  1  0  0  0  0
 26 27  2  0  0  0  0
 27 60  1  0  0  0  0
 27 28  1  0  0  0  0
 29 61  1  0  0  0  0
 29 30  1  0  0  0  0
 30 62  1  0  0  0  0
 32 31  1  0  0  0  0
 31 63  1  0  0  0  0
 31 64  1  0  0  0  0
 32 34  1  0  0  0  0
 32 65  1  0  0  0  0
 32 33  1  0  0  0  0
 33 66  1  0  0  0  0
 34 67  1  0  0  0  0
 34 68  1  0  0  0  0
M  ZZC   1 c1
M  ZZC   2 c2
M  ZZC   3 o1
M  ZZC   4 n1
M  ZZC   5 c3
M  ZZC   6 c4
M  ZZC   7 c5
M  ZZC   8 c6
M  ZZC   9 c7
M  ZZC  10 c8
M  ZZC  11 o2
M  ZZC  12 n2
M  ZZC  13 c9
M  ZZC  14 c10
M  ZZC  15 o3
M  ZZC  16 n3
M  ZZC  17 c11
M  ZZC  18 c12
M  ZZC  19 c13
M  ZZC  20 c14
M  ZZC  21 c15
M  ZZC  22 c16
M  ZZC  23 c17
M  ZZC  24 c18
M  ZZC  25 c19
M  ZZC  26 n4
M  ZZC  27 c20
M  ZZC  28 s1
M  ZZC  29 c21
M  ZZC  30 c22
M  ZZC  31 c23
M  ZZC  32 c24
M  ZZC  33 o4
M  ZZC  34 c25
M  ZZC  35 h11
M  ZZC  36 h12
M  ZZC  37 h13
M  ZZC  38 h01
M  ZZC  39 h31
M  ZZC  40 h51
M  ZZC  41 h52
M  ZZC  42 h53
M  ZZC  43 h61
M  ZZC  44 h62
M  ZZC  45 h63
M  ZZC  46 h71
M  ZZC  47 h72
M  ZZC  48 h73
M  ZZC  49 h91
M  ZZC  50 h02
M  ZZC  51 h111
M  ZZC  52 h121
M  ZZC  53 h122
M  ZZC  54 h123
M  ZZC  55 h141
M  ZZC  56 h151
M  ZZC  57 h191
M  ZZC  58 h192
M  ZZC  59 h193
M  ZZC  60 h201
M  ZZC  61 h211
M  ZZC  62 h221
M  ZZC  63 h231
M  ZZC  64 h232
M  ZZC  65 h241
M  ZZC  66 h41
M  ZZC  67 h251
M  ZZC  68 h252
M  ZZM   1 1
M  ZZI   1 111
M  ZZM   2 3
M  ZZI   2 121
M  ZZM   3 7
M  ZZI   3 81
M  ZZM   4 10
M  ZZI   4 211
M  ZZM   5 1
M  ZZI   5 113
M  ZZM   6 1
M  ZZI   6 110
M  ZZM   7 1
M  ZZI   7 111
M  ZZM   8 1
M  ZZI   8 111
M  ZZM   9 1
M  ZZI   9 111
M  ZZM  10 3
M  ZZI  10 121
M  ZZM  11 7
M  ZZI  11 81
M  ZZM  12 10
M  ZZI  12 192
M  ZZM  13 1
M  ZZI  13 113
M  ZZM  14 3
M  ZZI  14 121
M  ZZM  15 7
M  ZZI  15 81
M  ZZM  16 10
M  ZZI  16 211
M  ZZM  17 1
M  ZZI  17 113
M  ZZM  18 1
M  ZZI  18 111
M  ZZM  19 37
M  ZZI  19 124
M  ZZM  20 37
M  ZZI  20 125
M  ZZM  21 37
M  ZZI  21 125
M  ZZM  22 37
M  ZZI  22 124
M  ZZM  23 63
M  ZZI  23 104
M  ZZM  24 64
M  ZZI  24 105
M  ZZM  25 1
M  ZZI  25 111
M  ZZM  26 66
M  ZZI  26 222
M  ZZM  27 63
M  ZZI  27 104
M  ZZM  28 44
M  ZZI  28 248
M  ZZM  29 37
M  ZZI  29 125
M  ZZM  30 37
M  ZZI  30 125
M  ZZM  31 1
M  ZZI  31 112
M  ZZM  32 1
M  ZZI  32 113
M  ZZM  33 6
M  ZZI  33 60
M  ZZM  34 1
M  ZZI  34 112
M  ZZM  35 5
M  ZZI  35 1
M  ZZM  36 5
M  ZZI  36 1
M  ZZM  37 5
M  ZZI  37 1
M  ZZM  38 28
M  ZZI  38 11
M  ZZM  39 5
M  ZZI  39 1
M  ZZM  40 5
M  ZZI  40 1
M  ZZM  41 5
M  ZZI  41 1
M  ZZM  42 5
M  ZZI  42 1
M  ZZM  43 5
M  ZZI  43 1
M  ZZM  44 5
M  ZZI  44 1
M  ZZM  45 5
M  ZZI  45 1
M  ZZM  46 5
M  ZZI  46 1
M  ZZM  47 5
M  ZZI  47 1
M  ZZM  48 5
M  ZZI  48 1
M  ZZM  49 5
M  ZZI  49 1
M  ZZM  50 28
M  ZZI  50 11
M  ZZM  51 5
M  ZZI  51 1
M  ZZM  52 5
M  ZZI  52 1
M  ZZM  53 5
M  ZZI  53 1
M  ZZM  54 5
M  ZZI  54 1
M  ZZM  55 5
M  ZZI  55 1
M  ZZM  56 5
M  ZZI  56 1
M  ZZM  57 5
M  ZZI  57 1
M  ZZM  58 5
M  ZZI  58 1
M  ZZM  59 5
M  ZZI  59 1
M  ZZM  60 5
M  ZZI  60 1
M  ZZM  61 5
M  ZZI  61 1
M  ZZM  62 5
M  ZZI  62 1
M  ZZM  63 5
M  ZZI  63 1
M  ZZM  64 5
M  ZZI  64 1
M  ZZM  65 5
M  ZZI  65 1
M  ZZM  66 21
M  ZZI  66 20
M  ZZM  67 5
M  ZZI  67 1
M  ZZM  68 5
M  ZZI  68 1
M  END
> <IX>
1

> <NAME>
VHL_5EHR_7.pdb

> <Score>
-14.022235

> <Natom>
68

> <Nflex>
8

> <Hbond>
-4.201973

> <Hphob>
-6.554509

> <VwInt>
-28.195235

> <Dsolv>
16.321122

> <SolEl>
13.388896

> <Eintl>
5.530001

> <RecConf>
ND

> <projPath>
VHL_maps/

> <NAME_>
VHL_5EHR_7.pdb

$$$$
