VHL_6SFO_1.pdb
  MOLSOFT 04032206433D

 65 67  0  0  1  0  0  0  0  0999 V2000
   18.0629   -7.0312   -5.1203 C   0  0  0  0  0  0  0  0  0  0  0  0
   16.9168   -6.0605   -5.0656 C   0  0  0  0  0  0  0  0  0  0  0  0
   15.8404   -6.3347   -5.5675 O   0  0  0  0  0  0  0  0  0  0  0  0
   17.2056   -4.8995   -4.3773 N   0  0  0  0  0  0  0  0  0  0  0  0
   16.2665   -3.7818   -4.2058 C   0  0  1  0  0  0  0  0  0  0  0  0
   15.8555   -3.5651   -2.7176 C   0  0  0  0  0  0  0  0  0  0  0  0
   15.3302   -4.8898   -2.1499 C   0  0  0  0  0  0  0  0  0  0  0  0
   14.7214   -2.5386   -2.5815 C   0  0  0  0  0  0  0  0  0  0  0  0
   17.0266   -3.0793   -1.8511 C   0  0  0  0  0  0  0  0  0  0  0  0
   16.9634   -2.5783   -4.8639 C   0  0  0  0  0  0  0  0  0  0  0  0
   18.1665   -2.3967   -4.7348 O   0  0  0  0  0  0  0  0  0  0  0  0
   16.1900   -1.6764   -5.5912 N   0  0  0  0  0  0  0  0  0  0  0  0
   16.8241   -0.5860   -6.3196 C   0  0  2  0  0  0  0  0  0  0  0  0
   17.3603    0.5057   -5.3961 C   0  0  0  0  0  0  0  0  0  0  0  0
   16.9132    0.7090   -4.2751 O   0  0  0  0  0  0  0  0  0  0  0  0
   18.3225    1.2940   -6.0041 N   0  0  0  0  0  0  0  0  0  0  0  0
   18.6886    2.5955   -5.4811 C   0  0  0  0  0  0  0  0  0  0  0  0
   17.6888    3.6062   -5.9761 C   0  0  0  0  0  0  0  0  0  0  0  0
   17.9236    4.3514   -7.1286 C   0  0  0  0  0  0  0  0  0  0  0  0
   16.8999    5.0822   -7.7103 C   0  0  0  0  0  0  0  0  0  0  0  0
   15.6228    5.0443   -7.1638 C   0  0  0  0  0  0  0  0  0  0  0  0
   14.4817    5.5994   -7.8582 C   0  0  0  0  0  0  0  0  0  0  0  0
   13.4509    4.9385   -8.5107 C   0  0  0  0  0  0  0  0  0  0  0  0
   13.3322    3.4778   -8.7389 C   0  0  0  0  0  0  0  0  0  0  0  0
   12.4368    5.7550   -8.9565 N   0  0  0  0  0  0  0  0  0  0  0  0
   12.7458    7.0066   -8.6971 C   0  0  0  0  0  0  0  0  0  0  0  0
   14.2265    7.2919   -7.9042 S   0  0  0  0  0  0  0  0  0  0  0  0
   15.4145    4.3862   -5.9622 C   0  0  0  0  0  0  0  0  0  0  0  0
   16.4427    3.6920   -5.3644 C   0  0  0  0  0  0  0  0  0  0  0  0
   15.7309   -0.0362   -7.2358 C   0  0  0  0  0  0  0  0  0  0  0  0
   14.4532   -0.4026   -6.5033 C   0  0  1  0  0  0  0  0  0  0  0  0
   13.3389   -0.4615   -7.3896 O   0  0  0  0  0  0  0  0  0  0  0  0
   14.7952   -1.7717   -5.9519 C   0  0  0  0  0  0  0  0  0  0  0  0
   19.0208   -6.5060   -5.1838 H   0  0  0  0  0  0  0  0  0  0  0  0
   17.9577   -7.6667   -6.0043 H   0  0  0  0  0  0  0  0  0  0  0  0
   18.0399   -7.6553   -4.2239 H   0  0  0  0  0  0  0  0  0  0  0  0
   18.1579   -4.7657   -4.0550 H   0  0  0  0  0  0  0  0  0  0  0  0
   15.3682   -4.0244   -4.7671 H   0  0  0  0  0  0  0  0  0  0  0  0
   14.9970   -4.7718   -1.1157 H   0  0  0  0  0  0  0  0  0  0  0  0
   16.0964   -5.6675   -2.1589 H   0  0  0  0  0  0  0  0  0  0  0  0
   14.4794   -5.2648   -2.7275 H   0  0  0  0  0  0  0  0  0  0  0  0
   14.4124   -2.4034   -1.5411 H   0  0  0  0  0  0  0  0  0  0  0  0
   13.8308   -2.8523   -3.1361 H   0  0  0  0  0  0  0  0  0  0  0  0
   15.0146   -1.5643   -2.9838 H   0  0  0  0  0  0  0  0  0  0  0  0
   16.7413   -3.0102   -0.7964 H   0  0  0  0  0  0  0  0  0  0  0  0
   17.3752   -2.0871   -2.1541 H   0  0  0  0  0  0  0  0  0  0  0  0
   17.8767   -3.7570   -1.9069 H   0  0  0  0  0  0  0  0  0  0  0  0
   17.6518   -0.9841   -6.9036 H   0  0  0  0  0  0  0  0  0  0  0  0
   18.6890    1.0207   -6.9114 H   0  0  0  0  0  0  0  0  0  0  0  0
   18.7072    2.5679   -4.3859 H   0  0  0  0  0  0  0  0  0  0  0  0
   19.6992    2.8300   -5.8311 H   0  0  0  0  0  0  0  0  0  0  0  0
   18.8942    4.3217   -7.6150 H   0  0  0  0  0  0  0  0  0  0  0  0
   17.0901    5.6331   -8.6272 H   0  0  0  0  0  0  0  0  0  0  0  0
   12.4514    3.2507   -9.3461 H   0  0  0  0  0  0  0  0  0  0  0  0
   13.2253    2.9369   -7.7948 H   0  0  0  0  0  0  0  0  0  0  0  0
   14.2146    3.0861   -9.2517 H   0  0  0  0  0  0  0  0  0  0  0  0
   12.1029    7.8283   -8.9576 H   0  0  0  0  0  0  0  0  0  0  0  0
   14.4285    4.3698   -5.5052 H   0  0  0  0  0  0  0  0  0  0  0  0
   16.2366    3.1460   -4.4486 H   0  0  0  0  0  0  0  0  0  0  0  0
   15.8003    1.0397   -7.4276 H   0  0  0  0  0  0  0  0  0  0  0  0
   15.7613   -0.5325   -8.2134 H   0  0  0  0  0  0  0  0  0  0  0  0
   14.2492    0.3179   -5.7019 H   0  0  0  0  0  0  0  0  0  0  0  0
   12.5317   -0.3251   -6.8628 H   0  0  0  0  0  0  0  0  0  0  0  0
   14.7214   -2.5307   -6.7347 H   0  0  0  0  0  0  0  0  0  0  0  0
   14.1516   -2.0722   -5.1262 H   0  0  0  0  0  0  0  0  0  0  0  0
  1 34  1  0  0  0  0
  1 35  1  0  0  0  0
  1 36  1  0  0  0  0
  1  2  1  0  0  0  0
  2  3  2  0  0  0  0
  2  4  1  0  0  0  0
  4 37  1  0  0  0  0
  5  4  1  0  0  0  0
  5 38  1  0  0  0  0
  5  6  1  0  0  0  0
  5 10  1  0  0  0  0
  6  7  1  0  0  0  0
  6  8  1  0  0  0  0
  6  9  1  0  0  0  0
  7 39  1  0  0  0  0
  7 40  1  0  0  0  0
  7 41  1  0  0  0  0
  8 42  1  0  0  0  0
  8 43  1  0  0  0  0
  8 44  1  0  0  0  0
  9 45  1  0  0  0  0
  9 46  1  0  0  0  0
  9 47  1  0  0  0  0
 10 11  2  0  0  0  0
 10 12  1  0  0  0  0
 12 33  1  0  0  0  0
 13 12  1  0  0  0  0
 13 30  1  0  0  0  0
 13 48  1  0  0  0  0
 13 14  1  0  0  0  0
 14 15  2  0  0  0  0
 14 16  1  0  0  0  0
 16 49  1  0  0  0  0
 16 17  1  0  0  0  0
 17 50  1  0  0  0  0
 17 51  1  0  0  0  0
 17 18  1  0  0  0  0
 18 19  1  0  0  0  0
 18 29  2  0  0  0  0
 19 52  1  0  0  0  0
 19 20  2  0  0  0  0
 20 53  1  0  0  0  0
 20 21  1  0  0  0  0
 21 28  2  0  0  0  0
 21 22  1  0  0  0  0
 22 23  2  0  0  0  0
 22 27  1  0  0  0  0
 23 24  1  0  0  0  0
 23 25  1  0  0  0  0
 24 54  1  0  0  0  0
 24 55  1  0  0  0  0
 24 56  1  0  0  0  0
 25 26  2  0  0  0  0
 26 57  1  0  0  0  0
 26 27  1  0  0  0  0
 28 58  1  0  0  0  0
 28 29  1  0  0  0  0
 29 59  1  0  0  0  0
 31 30  1  0  0  0  0
 30 60  1  0  0  0  0
 30 61  1  0  0  0  0
 31 33  1  0  0  0  0
 31 62  1  0  0  0  0
 31 32  1  0  0  0  0
 32 63  1  0  0  0  0
 33 64  1  0  0  0  0
 33 65  1  0  0  0  0
M  ZZC   1 c1
M  ZZC   2 c2
M  ZZC   3 o1
M  ZZC   4 n1
M  ZZC   5 c3
M  ZZC   6 c4
M  ZZC   7 c5
M  ZZC   8 c6
M  ZZC   9 c7
M  ZZC  10 c8
M  ZZC  11 o2
M  ZZC  12 n2
M  ZZC  13 c9
M  ZZC  14 c10
M  ZZC  15 o3
M  ZZC  16 n3
M  ZZC  17 c11
M  ZZC  18 c12
M  ZZC  19 c13
M  ZZC  20 c14
M  ZZC  21 c15
M  ZZC  22 c16
M  ZZC  23 c17
M  ZZC  24 c18
M  ZZC  25 n4
M  ZZC  26 c19
M  ZZC  27 s1
M  ZZC  28 c20
M  ZZC  29 c21
M  ZZC  30 c22
M  ZZC  31 c23
M  ZZC  32 o4
M  ZZC  33 c24
M  ZZC  34 h11
M  ZZC  35 h12
M  ZZC  36 h13
M  ZZC  37 h01
M  ZZC  38 h31
M  ZZC  39 h51
M  ZZC  40 h52
M  ZZC  41 h53
M  ZZC  42 h61
M  ZZC  43 h62
M  ZZC  44 h63
M  ZZC  45 h71
M  ZZC  46 h72
M  ZZC  47 h73
M  ZZC  48 h91
M  ZZC  49 h02
M  ZZC  50 h111
M  ZZC  51 h112
M  ZZC  52 h131
M  ZZC  53 h141
M  ZZC  54 h181
M  ZZC  55 h182
M  ZZC  56 h183
M  ZZC  57 h191
M  ZZC  58 h201
M  ZZC  59 h211
M  ZZC  60 h221
M  ZZC  61 h222
M  ZZC  62 h231
M  ZZC  63 h41
M  ZZC  64 h241
M  ZZC  65 h242
M  ZZM   1 1
M  ZZI   1 111
M  ZZM   2 3
M  ZZI   2 121
M  ZZM   3 7
M  ZZI   3 81
M  ZZM   4 10
M  ZZI   4 211
M  ZZM   5 1
M  ZZI   5 113
M  ZZM   6 1
M  ZZI   6 110
M  ZZM   7 1
M  ZZI   7 111
M  ZZM   8 1
M  ZZI   8 111
M  ZZM   9 1
M  ZZI   9 111
M  ZZM  10 3
M  ZZI  10 121
M  ZZM  11 7
M  ZZI  11 81
M  ZZM  12 10
M  ZZI  12 192
M  ZZM  13 1
M  ZZI  13 113
M  ZZM  14 3
M  ZZI  14 121
M  ZZM  15 7
M  ZZI  15 81
M  ZZM  16 10
M  ZZI  16 211
M  ZZM  17 1
M  ZZI  17 112
M  ZZM  18 37
M  ZZI  18 124
M  ZZM  19 37
M  ZZI  19 125
M  ZZM  20 37
M  ZZI  20 125
M  ZZM  21 37
M  ZZI  21 124
M  ZZM  22 63
M  ZZI  22 104
M  ZZM  23 64
M  ZZI  23 105
M  ZZM  24 1
M  ZZI  24 111
M  ZZM  25 66
M  ZZI  25 222
M  ZZM  26 63
M  ZZI  26 104
M  ZZM  27 44
M  ZZI  27 248
M  ZZM  28 37
M  ZZI  28 125
M  ZZM  29 37
M  ZZI  29 125
M  ZZM  30 1
M  ZZI  30 112
M  ZZM  31 1
M  ZZI  31 113
M  ZZM  32 6
M  ZZI  32 60
M  ZZM  33 1
M  ZZI  33 112
M  ZZM  34 5
M  ZZI  34 1
M  ZZM  35 5
M  ZZI  35 1
M  ZZM  36 5
M  ZZI  36 1
M  ZZM  37 28
M  ZZI  37 11
M  ZZM  38 5
M  ZZI  38 1
M  ZZM  39 5
M  ZZI  39 1
M  ZZM  40 5
M  ZZI  40 1
M  ZZM  41 5
M  ZZI  41 1
M  ZZM  42 5
M  ZZI  42 1
M  ZZM  43 5
M  ZZI  43 1
M  ZZM  44 5
M  ZZI  44 1
M  ZZM  45 5
M  ZZI  45 1
M  ZZM  46 5
M  ZZI  46 1
M  ZZM  47 5
M  ZZI  47 1
M  ZZM  48 5
M  ZZI  48 1
M  ZZM  49 28
M  ZZI  49 11
M  ZZM  50 5
M  ZZI  50 1
M  ZZM  51 5
M  ZZI  51 1
M  ZZM  52 5
M  ZZI  52 1
M  ZZM  53 5
M  ZZI  53 1
M  ZZM  54 5
M  ZZI  54 1
M  ZZM  55 5
M  ZZI  55 1
M  ZZM  56 5
M  ZZI  56 1
M  ZZM  57 5
M  ZZI  57 1
M  ZZM  58 5
M  ZZI  58 1
M  ZZM  59 5
M  ZZI  59 1
M  ZZM  60 5
M  ZZI  60 1
M  ZZM  61 5
M  ZZI  61 1
M  ZZM  62 5
M  ZZI  62 1
M  ZZM  63 21
M  ZZI  63 20
M  ZZM  64 5
M  ZZI  64 1
M  ZZM  65 5
M  ZZI  65 1
M  END
> <IX>
1

> <NAME>
VHL_6SFO_1.pdb

> <Score>
-7.715759

> <Natom>
65

> <Nflex>
8

> <Hbond>
-6.284706

> <Hphob>
-6.785997

> <VwInt>
-28.292271

> <Dsolv>
21.699406

> <SolEl>
23.426187

> <Eintl>
7.479332

> <RecConf>
ND

> <projPath>
VHL_maps/

> <NAME_>
VHL_6SFO_1.pdb

$$$$
