VHL_4IM0_3.pdb
  MOLSOFT 04032206383D

 65 67  0  0  1  0  0  0  0  0999 V2000
   19.1239   -5.9087   -5.8538 C   0  0  0  0  0  0  0  0  0  0  0  0
   17.7576   -5.3566   -5.5468 C   0  0  0  0  0  0  0  0  0  0  0  0
   16.7545   -5.9846   -5.8493 O   0  0  0  0  0  0  0  0  0  0  0  0
   17.7704   -4.1181   -4.9251 N   0  0  0  0  0  0  0  0  0  0  0  0
   16.5645   -3.3368   -4.6432 C   0  0  1  0  0  0  0  0  0  0  0  0
   15.9193   -3.6116   -3.2438 C   0  0  0  0  0  0  0  0  0  0  0  0
   14.5734   -2.8756   -3.1584 C   0  0  0  0  0  0  0  0  0  0  0  0
   16.7961   -3.1497   -2.0673 C   0  0  0  0  0  0  0  0  0  0  0  0
   15.6392   -5.1068   -3.0443 C   0  0  0  0  0  0  0  0  0  0  0  0
   16.9362   -1.8503   -4.8153 C   0  0  0  0  0  0  0  0  0  0  0  0
   17.7990   -1.3247   -4.1251 O   0  0  0  0  0  0  0  0  0  0  0  0
   16.2565   -1.1236   -5.7909 N   0  0  0  0  0  0  0  0  0  0  0  0
   16.2869    0.3292   -5.8344 C   0  0  2  0  0  0  0  0  0  0  0  0
   15.0440    0.8797   -5.1193 C   0  0  0  0  0  0  0  0  0  0  0  0
   13.9087    0.5128   -5.3948 O   0  0  0  0  0  0  0  0  0  0  0  0
   15.3187    1.8270   -4.1496 N   0  0  0  0  0  0  0  0  0  0  0  0
   14.2672    2.4685   -3.3813 C   0  0  0  0  0  0  0  0  0  0  0  0
   14.0969    1.8400   -2.0225 C   0  0  0  0  0  0  0  0  0  0  0  0
   14.5765    2.4689   -0.8803 C   0  0  0  0  0  0  0  0  0  0  0  0
   14.4474    1.8735    0.3628 C   0  0  0  0  0  0  0  0  0  0  0  0
   13.8353    0.6320    0.5071 C   0  0  0  0  0  0  0  0  0  0  0  0
   13.7296    0.0046    1.8217 C   0  0  0  0  0  0  0  0  0  0  0  0
   13.3312    0.5230    3.0500 C   0  0  0  0  0  0  0  0  0  0  0  0
   12.8450    1.8955    3.3322 C   0  0  0  0  0  0  0  0  0  0  0  0
   13.3888   -0.3643    4.1080 N   0  0  0  0  0  0  0  0  0  0  0  0
   13.8016   -1.5359    3.6823 C   0  0  0  0  0  0  0  0  0  0  0  0
   14.1705   -1.6489    2.0210 S   0  0  0  0  0  0  0  0  0  0  0  0
   13.3438    0.0090   -0.6372 C   0  0  0  0  0  0  0  0  0  0  0  0
   13.4766    0.6044   -1.8803 C   0  0  0  0  0  0  0  0  0  0  0  0
   16.2360    0.6633   -7.3148 C   0  0  0  0  0  0  0  0  0  0  0  0
   15.5777   -0.5442   -7.9800 C   0  0  1  0  0  0  0  0  0  0  0  0
   16.3382   -0.9523   -9.1233 O   0  0  0  0  0  0  0  0  0  0  0  0
   15.5486   -1.6560   -6.9339 C   0  0  0  0  0  0  0  0  0  0  0  0
   19.9024   -5.1567   -5.7166 H   0  0  0  0  0  0  0  0  0  0  0  0
   19.1555   -6.2371   -6.8961 H   0  0  0  0  0  0  0  0  0  0  0  0
   19.3248   -6.7623   -5.2013 H   0  0  0  0  0  0  0  0  0  0  0  0
   18.6624   -3.6974   -4.6928 H   0  0  0  0  0  0  0  0  0  0  0  0
   15.8448   -3.6155   -5.4070 H   0  0  0  0  0  0  0  0  0  0  0  0
   14.6952   -1.7953   -3.2666 H   0  0  0  0  0  0  0  0  0  0  0  0
   14.0832   -3.0464   -2.1951 H   0  0  0  0  0  0  0  0  0  0  0  0
   13.8842   -3.2070   -3.9414 H   0  0  0  0  0  0  0  0  0  0  0  0
   16.3984   -3.5061   -1.1114 H   0  0  0  0  0  0  0  0  0  0  0  0
   16.8474   -2.0602   -1.9902 H   0  0  0  0  0  0  0  0  0  0  0  0
   17.8177   -3.5254   -2.1538 H   0  0  0  0  0  0  0  0  0  0  0  0
   15.0851   -5.2938   -2.1189 H   0  0  0  0  0  0  0  0  0  0  0  0
   16.5602   -5.6932   -2.9881 H   0  0  0  0  0  0  0  0  0  0  0  0
   15.0371   -5.5045   -3.8613 H   0  0  0  0  0  0  0  0  0  0  0  0
   17.1969    0.7177   -5.3633 H   0  0  0  0  0  0  0  0  0  0  0  0
   16.2794    2.0568   -3.9198 H   0  0  0  0  0  0  0  0  0  0  0  0
   14.5353    3.5256   -3.2865 H   0  0  0  0  0  0  0  0  0  0  0  0
   13.3217    2.4295   -3.9309 H   0  0  0  0  0  0  0  0  0  0  0  0
   15.0707    3.4334   -0.9514 H   0  0  0  0  0  0  0  0  0  0  0  0
   14.8559    2.3889    1.2263 H   0  0  0  0  0  0  0  0  0  0  0  0
   13.6845    2.5868    3.4459 H   0  0  0  0  0  0  0  0  0  0  0  0
   12.2613    1.9208    4.2572 H   0  0  0  0  0  0  0  0  0  0  0  0
   12.1990    2.2623    2.5290 H   0  0  0  0  0  0  0  0  0  0  0  0
   13.9082   -2.3852    4.3416 H   0  0  0  0  0  0  0  0  0  0  0  0
   12.8477   -0.9551   -0.5751 H   0  0  0  0  0  0  0  0  0  0  0  0
   13.0993    0.0852   -2.7561 H   0  0  0  0  0  0  0  0  0  0  0  0
   15.6804    1.5847   -7.5192 H   0  0  0  0  0  0  0  0  0  0  0  0
   17.2509    0.8171   -7.6961 H   0  0  0  0  0  0  0  0  0  0  0  0
   14.5664   -0.3035   -8.3133 H   0  0  0  0  0  0  0  0  0  0  0  0
   17.2807   -0.8979   -8.8736 H   0  0  0  0  0  0  0  0  0  0  0  0
   16.0042   -2.5866   -7.2804 H   0  0  0  0  0  0  0  0  0  0  0  0
   14.5235   -1.8632   -6.6132 H   0  0  0  0  0  0  0  0  0  0  0  0
  1 34  1  0  0  0  0
  1 35  1  0  0  0  0
  1 36  1  0  0  0  0
  1  2  1  0  0  0  0
  2  3  2  0  0  0  0
  2  4  1  0  0  0  0
  4 37  1  0  0  0  0
  5  4  1  0  0  0  0
  5 38  1  0  0  0  0
  5  6  1  0  0  0  0
  5 10  1  0  0  0  0
  6  7  1  0  0  0  0
  6  8  1  0  0  0  0
  6  9  1  0  0  0  0
  7 39  1  0  0  0  0
  7 40  1  0  0  0  0
  7 41  1  0  0  0  0
  8 42  1  0  0  0  0
  8 43  1  0  0  0  0
  8 44  1  0  0  0  0
  9 45  1  0  0  0  0
  9 46  1  0  0  0  0
  9 47  1  0  0  0  0
 10 11  2  0  0  0  0
 10 12  1  0  0  0  0
 12 33  1  0  0  0  0
 13 12  1  0  0  0  0
 13 30  1  0  0  0  0
 13 48  1  0  0  0  0
 13 14  1  0  0  0  0
 14 15  2  0  0  0  0
 14 16  1  0  0  0  0
 16 49  1  0  0  0  0
 16 17  1  0  0  0  0
 17 50  1  0  0  0  0
 17 51  1  0  0  0  0
 17 18  1  0  0  0  0
 18 19  1  0  0  0  0
 18 29  2  0  0  0  0
 19 52  1  0  0  0  0
 19 20  2  0  0  0  0
 20 53  1  0  0  0  0
 20 21  1  0  0  0  0
 21 28  2  0  0  0  0
 21 22  1  0  0  0  0
 22 23  2  0  0  0  0
 22 27  1  0  0  0  0
 23 24  1  0  0  0  0
 23 25  1  0  0  0  0
 24 54  1  0  0  0  0
 24 55  1  0  0  0  0
 24 56  1  0  0  0  0
 25 26  2  0  0  0  0
 26 57  1  0  0  0  0
 26 27  1  0  0  0  0
 28 58  1  0  0  0  0
 28 29  1  0  0  0  0
 29 59  1  0  0  0  0
 31 30  1  0  0  0  0
 30 60  1  0  0  0  0
 30 61  1  0  0  0  0
 31 33  1  0  0  0  0
 31 62  1  0  0  0  0
 31 32  1  0  0  0  0
 32 63  1  0  0  0  0
 33 64  1  0  0  0  0
 33 65  1  0  0  0  0
M  ZZC   1 c1
M  ZZC   2 c2
M  ZZC   3 o1
M  ZZC   4 n1
M  ZZC   5 c3
M  ZZC   6 c4
M  ZZC   7 c5
M  ZZC   8 c6
M  ZZC   9 c7
M  ZZC  10 c8
M  ZZC  11 o2
M  ZZC  12 n2
M  ZZC  13 c9
M  ZZC  14 c10
M  ZZC  15 o3
M  ZZC  16 n3
M  ZZC  17 c11
M  ZZC  18 c12
M  ZZC  19 c13
M  ZZC  20 c14
M  ZZC  21 c15
M  ZZC  22 c16
M  ZZC  23 c17
M  ZZC  24 c18
M  ZZC  25 n4
M  ZZC  26 c19
M  ZZC  27 s1
M  ZZC  28 c20
M  ZZC  29 c21
M  ZZC  30 c22
M  ZZC  31 c23
M  ZZC  32 o4
M  ZZC  33 c24
M  ZZC  34 h11
M  ZZC  35 h12
M  ZZC  36 h13
M  ZZC  37 h01
M  ZZC  38 h31
M  ZZC  39 h51
M  ZZC  40 h52
M  ZZC  41 h53
M  ZZC  42 h61
M  ZZC  43 h62
M  ZZC  44 h63
M  ZZC  45 h71
M  ZZC  46 h72
M  ZZC  47 h73
M  ZZC  48 h91
M  ZZC  49 h02
M  ZZC  50 h111
M  ZZC  51 h112
M  ZZC  52 h131
M  ZZC  53 h141
M  ZZC  54 h181
M  ZZC  55 h182
M  ZZC  56 h183
M  ZZC  57 h191
M  ZZC  58 h201
M  ZZC  59 h211
M  ZZC  60 h221
M  ZZC  61 h222
M  ZZC  62 h231
M  ZZC  63 h41
M  ZZC  64 h241
M  ZZC  65 h242
M  ZZM   1 1
M  ZZI   1 111
M  ZZM   2 3
M  ZZI   2 121
M  ZZM   3 7
M  ZZI   3 81
M  ZZM   4 10
M  ZZI   4 211
M  ZZM   5 1
M  ZZI   5 113
M  ZZM   6 1
M  ZZI   6 110
M  ZZM   7 1
M  ZZI   7 111
M  ZZM   8 1
M  ZZI   8 111
M  ZZM   9 1
M  ZZI   9 111
M  ZZM  10 3
M  ZZI  10 121
M  ZZM  11 7
M  ZZI  11 81
M  ZZM  12 10
M  ZZI  12 192
M  ZZM  13 1
M  ZZI  13 113
M  ZZM  14 3
M  ZZI  14 121
M  ZZM  15 7
M  ZZI  15 81
M  ZZM  16 10
M  ZZI  16 211
M  ZZM  17 1
M  ZZI  17 112
M  ZZM  18 37
M  ZZI  18 124
M  ZZM  19 37
M  ZZI  19 125
M  ZZM  20 37
M  ZZI  20 125
M  ZZM  21 37
M  ZZI  21 124
M  ZZM  22 63
M  ZZI  22 104
M  ZZM  23 64
M  ZZI  23 105
M  ZZM  24 1
M  ZZI  24 111
M  ZZM  25 66
M  ZZI  25 222
M  ZZM  26 63
M  ZZI  26 104
M  ZZM  27 44
M  ZZI  27 248
M  ZZM  28 37
M  ZZI  28 125
M  ZZM  29 37
M  ZZI  29 125
M  ZZM  30 1
M  ZZI  30 112
M  ZZM  31 1
M  ZZI  31 113
M  ZZM  32 6
M  ZZI  32 60
M  ZZM  33 1
M  ZZI  33 112
M  ZZM  34 5
M  ZZI  34 1
M  ZZM  35 5
M  ZZI  35 1
M  ZZM  36 5
M  ZZI  36 1
M  ZZM  37 28
M  ZZI  37 11
M  ZZM  38 5
M  ZZI  38 1
M  ZZM  39 5
M  ZZI  39 1
M  ZZM  40 5
M  ZZI  40 1
M  ZZM  41 5
M  ZZI  41 1
M  ZZM  42 5
M  ZZI  42 1
M  ZZM  43 5
M  ZZI  43 1
M  ZZM  44 5
M  ZZI  44 1
M  ZZM  45 5
M  ZZI  45 1
M  ZZM  46 5
M  ZZI  46 1
M  ZZM  47 5
M  ZZI  47 1
M  ZZM  48 5
M  ZZI  48 1
M  ZZM  49 28
M  ZZI  49 11
M  ZZM  50 5
M  ZZI  50 1
M  ZZM  51 5
M  ZZI  51 1
M  ZZM  52 5
M  ZZI  52 1
M  ZZM  53 5
M  ZZI  53 1
M  ZZM  54 5
M  ZZI  54 1
M  ZZM  55 5
M  ZZI  55 1
M  ZZM  56 5
M  ZZI  56 1
M  ZZM  57 5
M  ZZI  57 1
M  ZZM  58 5
M  ZZI  58 1
M  ZZM  59 5
M  ZZI  59 1
M  ZZM  60 5
M  ZZI  60 1
M  ZZM  61 5
M  ZZI  61 1
M  ZZM  62 5
M  ZZI  62 1
M  ZZM  63 21
M  ZZI  63 20
M  ZZM  64 5
M  ZZI  64 1
M  ZZM  65 5
M  ZZI  65 1
M  END
> <IX>
1

> <NAME>
VHL_4IM0_3.pdb

> <Score>
-27.320563

> <Natom>
65

> <Nflex>
8

> <Hbond>
-7.322175

> <Hphob>
-6.871889

> <VwInt>
-29.577861

> <Dsolv>
15.524926

> <SolEl>
7.037345

> <Eintl>
7.163707

> <RecConf>
ND

> <projPath>
VHL_maps/

> <NAME_>
VHL_4IM0_3.pdb

$$$$
