VHL_6JQR_1.pdb
  MOLSOFT 04032206433D

 65 67  0  0  1  0  0  0  0  0999 V2000
   18.1108   -6.6503   -5.1129 C   0  0  0  0  0  0  0  0  0  0  0  0
   16.8972   -5.7752   -4.9582 C   0  0  0  0  0  0  0  0  0  0  0  0
   15.8120   -6.1300   -5.3847 O   0  0  0  0  0  0  0  0  0  0  0  0
   17.1412   -4.6004   -4.2743 N   0  0  0  0  0  0  0  0  0  0  0  0
   16.1337   -3.5605   -4.0083 C   0  0  1  0  0  0  0  0  0  0  0  0
   15.8958   -3.3611   -2.4818 C   0  0  0  0  0  0  0  0  0  0  0  0
   15.4313   -4.6979   -1.8916 C   0  0  0  0  0  0  0  0  0  0  0  0
   14.7921   -2.3396   -2.1833 C   0  0  0  0  0  0  0  0  0  0  0  0
   17.1628   -2.8974   -1.7485 C   0  0  0  0  0  0  0  0  0  0  0  0
   16.6264   -2.3234   -4.7888 C   0  0  0  0  0  0  0  0  0  0  0  0
   17.8210   -2.0549   -4.8456 O   0  0  0  0  0  0  0  0  0  0  0  0
   15.6729   -1.5541   -5.4632 N   0  0  0  0  0  0  0  0  0  0  0  0
   16.0649   -0.6435   -6.5291 C   0  0  2  0  0  0  0  0  0  0  0  0
   16.4474    0.7490   -6.0206 C   0  0  0  0  0  0  0  0  0  0  0  0
   15.9218    1.2712   -5.0468 O   0  0  0  0  0  0  0  0  0  0  0  0
   17.3824    1.3812   -6.8187 N   0  0  0  0  0  0  0  0  0  0  0  0
   17.8305    2.7382   -6.5527 C   0  0  0  0  0  0  0  0  0  0  0  0
   19.2406    3.0187   -7.0150 C   0  0  0  0  0  0  0  0  0  0  0  0
   20.1849    2.0062   -7.1273 C   0  0  0  0  0  0  0  0  0  0  0  0
   21.4852    2.2823   -7.4957 C   0  0  0  0  0  0  0  0  0  0  0  0
   21.8964    3.5793   -7.7571 C   0  0  0  0  0  0  0  0  0  0  0  0
   23.2813    3.8401   -8.1153 C   0  0  0  0  0  0  0  0  0  0  0  0
   24.3493    4.2569   -7.3339 C   0  0  0  0  0  0  0  0  0  0  0  0
   24.3185    4.5862   -5.8909 C   0  0  0  0  0  0  0  0  0  0  0  0
   25.5591    4.3381   -7.9943 N   0  0  0  0  0  0  0  0  0  0  0  0
   25.3972    4.0082   -9.2559 C   0  0  0  0  0  0  0  0  0  0  0  0
   23.8114    3.5931   -9.7308 S   0  0  0  0  0  0  0  0  0  0  0  0
   20.9635    4.6024   -7.6422 C   0  0  0  0  0  0  0  0  0  0  0  0
   19.6540    4.3234   -7.2755 C   0  0  0  0  0  0  0  0  0  0  0  0
   14.8280   -0.5733   -7.4104 C   0  0  0  0  0  0  0  0  0  0  0  0
   13.6755   -0.6938   -6.4244 C   0  0  1  0  0  0  0  0  0  0  0  0
   12.5347   -1.3118   -7.0140 O   0  0  0  0  0  0  0  0  0  0  0  0
   14.2267   -1.5821   -5.3220 C   0  0  0  0  0  0  0  0  0  0  0  0
   19.0142   -6.0481   -5.2481 H   0  0  0  0  0  0  0  0  0  0  0  0
   17.9885   -7.2901   -5.9920 H   0  0  0  0  0  0  0  0  0  0  0  0
   18.2131   -7.2786   -4.2251 H   0  0  0  0  0  0  0  0  0  0  0  0
   18.1022   -4.3953   -4.0250 H   0  0  0  0  0  0  0  0  0  0  0  0
   15.2005   -3.9071   -4.4527 H   0  0  0  0  0  0  0  0  0  0  0  0
   15.1776   -4.5919   -0.8340 H   0  0  0  0  0  0  0  0  0  0  0  0
   16.2017   -5.4665   -1.9750 H   0  0  0  0  0  0  0  0  0  0  0  0
   14.5413   -5.0764   -2.4043 H   0  0  0  0  0  0  0  0  0  0  0  0
   15.0742   -1.3336   -2.5060 H   0  0  0  0  0  0  0  0  0  0  0  0
   14.5887   -2.2739   -1.1093 H   0  0  0  0  0  0  0  0  0  0  0  0
   13.8497   -2.6181   -2.6646 H   0  0  0  0  0  0  0  0  0  0  0  0
   16.9880   -2.8016   -0.6720 H   0  0  0  0  0  0  0  0  0  0  0  0
   17.5082   -1.9235   -2.1086 H   0  0  0  0  0  0  0  0  0  0  0  0
   17.9825   -3.6029   -1.8726 H   0  0  0  0  0  0  0  0  0  0  0  0
   16.9126   -1.0666   -7.0781 H   0  0  0  0  0  0  0  0  0  0  0  0
   17.7773    0.8804   -7.6099 H   0  0  0  0  0  0  0  0  0  0  0  0
   17.1287    3.3994   -7.0726 H   0  0  0  0  0  0  0  0  0  0  0  0
   17.7538    2.9410   -5.4792 H   0  0  0  0  0  0  0  0  0  0  0  0
   19.9166    0.9756   -6.9272 H   0  0  0  0  0  0  0  0  0  0  0  0
   22.1844    1.4597   -7.5811 H   0  0  0  0  0  0  0  0  0  0  0  0
   25.2803    4.9871   -5.5582 H   0  0  0  0  0  0  0  0  0  0  0  0
   24.1078    3.6936   -5.2972 H   0  0  0  0  0  0  0  0  0  0  0  0
   23.5513    5.3353   -5.6756 H   0  0  0  0  0  0  0  0  0  0  0  0
   26.2158    3.9998   -9.9612 H   0  0  0  0  0  0  0  0  0  0  0  0
   21.2529    5.6307   -7.8375 H   0  0  0  0  0  0  0  0  0  0  0  0
   18.9493    5.1452   -7.1863 H   0  0  0  0  0  0  0  0  0  0  0  0
   14.7621    0.3419   -8.0082 H   0  0  0  0  0  0  0  0  0  0  0  0
   14.8169   -1.4186   -8.1070 H   0  0  0  0  0  0  0  0  0  0  0  0
   13.3815    0.2846   -6.0274 H   0  0  0  0  0  0  0  0  0  0  0  0
   12.1841   -0.7162   -7.7008 H   0  0  0  0  0  0  0  0  0  0  0  0
   13.8454   -2.6037   -5.3578 H   0  0  0  0  0  0  0  0  0  0  0  0
   13.9543   -1.1565   -4.3563 H   0  0  0  0  0  0  0  0  0  0  0  0
  1 34  1  0  0  0  0
  1 35  1  0  0  0  0
  1 36  1  0  0  0  0
  1  2  1  0  0  0  0
  2  3  2  0  0  0  0
  2  4  1  0  0  0  0
  4 37  1  0  0  0  0
  5  4  1  0  0  0  0
  5 38  1  0  0  0  0
  5  6  1  0  0  0  0
  5 10  1  0  0  0  0
  6  7  1  0  0  0  0
  6  8  1  0  0  0  0
  6  9  1  0  0  0  0
  7 39  1  0  0  0  0
  7 40  1  0  0  0  0
  7 41  1  0  0  0  0
  8 42  1  0  0  0  0
  8 43  1  0  0  0  0
  8 44  1  0  0  0  0
  9 45  1  0  0  0  0
  9 46  1  0  0  0  0
  9 47  1  0  0  0  0
 10 11  2  0  0  0  0
 10 12  1  0  0  0  0
 12 33  1  0  0  0  0
 13 12  1  0  0  0  0
 13 30  1  0  0  0  0
 13 48  1  0  0  0  0
 13 14  1  0  0  0  0
 14 15  2  0  0  0  0
 14 16  1  0  0  0  0
 16 49  1  0  0  0  0
 16 17  1  0  0  0  0
 17 50  1  0  0  0  0
 17 51  1  0  0  0  0
 17 18  1  0  0  0  0
 18 19  1  0  0  0  0
 18 29  2  0  0  0  0
 19 52  1  0  0  0  0
 19 20  2  0  0  0  0
 20 53  1  0  0  0  0
 20 21  1  0  0  0  0
 21 28  2  0  0  0  0
 21 22  1  0  0  0  0
 22 23  2  0  0  0  0
 22 27  1  0  0  0  0
 23 24  1  0  0  0  0
 23 25  1  0  0  0  0
 24 54  1  0  0  0  0
 24 55  1  0  0  0  0
 24 56  1  0  0  0  0
 25 26  2  0  0  0  0
 26 57  1  0  0  0  0
 26 27  1  0  0  0  0
 28 58  1  0  0  0  0
 28 29  1  0  0  0  0
 29 59  1  0  0  0  0
 31 30  1  0  0  0  0
 30 60  1  0  0  0  0
 30 61  1  0  0  0  0
 31 33  1  0  0  0  0
 31 62  1  0  0  0  0
 31 32  1  0  0  0  0
 32 63  1  0  0  0  0
 33 64  1  0  0  0  0
 33 65  1  0  0  0  0
M  ZZC   1 c1
M  ZZC   2 c2
M  ZZC   3 o1
M  ZZC   4 n1
M  ZZC   5 c3
M  ZZC   6 c4
M  ZZC   7 c5
M  ZZC   8 c6
M  ZZC   9 c7
M  ZZC  10 c8
M  ZZC  11 o2
M  ZZC  12 n2
M  ZZC  13 c9
M  ZZC  14 c10
M  ZZC  15 o3
M  ZZC  16 n3
M  ZZC  17 c11
M  ZZC  18 c12
M  ZZC  19 c13
M  ZZC  20 c14
M  ZZC  21 c15
M  ZZC  22 c16
M  ZZC  23 c17
M  ZZC  24 c18
M  ZZC  25 n4
M  ZZC  26 c19
M  ZZC  27 s1
M  ZZC  28 c20
M  ZZC  29 c21
M  ZZC  30 c22
M  ZZC  31 c23
M  ZZC  32 o4
M  ZZC  33 c24
M  ZZC  34 h11
M  ZZC  35 h12
M  ZZC  36 h13
M  ZZC  37 h01
M  ZZC  38 h31
M  ZZC  39 h51
M  ZZC  40 h52
M  ZZC  41 h53
M  ZZC  42 h61
M  ZZC  43 h62
M  ZZC  44 h63
M  ZZC  45 h71
M  ZZC  46 h72
M  ZZC  47 h73
M  ZZC  48 h91
M  ZZC  49 h02
M  ZZC  50 h111
M  ZZC  51 h112
M  ZZC  52 h131
M  ZZC  53 h141
M  ZZC  54 h181
M  ZZC  55 h182
M  ZZC  56 h183
M  ZZC  57 h191
M  ZZC  58 h201
M  ZZC  59 h211
M  ZZC  60 h221
M  ZZC  61 h222
M  ZZC  62 h231
M  ZZC  63 h41
M  ZZC  64 h241
M  ZZC  65 h242
M  ZZM   1 1
M  ZZI   1 111
M  ZZM   2 3
M  ZZI   2 121
M  ZZM   3 7
M  ZZI   3 81
M  ZZM   4 10
M  ZZI   4 211
M  ZZM   5 1
M  ZZI   5 113
M  ZZM   6 1
M  ZZI   6 110
M  ZZM   7 1
M  ZZI   7 111
M  ZZM   8 1
M  ZZI   8 111
M  ZZM   9 1
M  ZZI   9 111
M  ZZM  10 3
M  ZZI  10 121
M  ZZM  11 7
M  ZZI  11 81
M  ZZM  12 10
M  ZZI  12 192
M  ZZM  13 1
M  ZZI  13 113
M  ZZM  14 3
M  ZZI  14 121
M  ZZM  15 7
M  ZZI  15 81
M  ZZM  16 10
M  ZZI  16 211
M  ZZM  17 1
M  ZZI  17 112
M  ZZM  18 37
M  ZZI  18 124
M  ZZM  19 37
M  ZZI  19 125
M  ZZM  20 37
M  ZZI  20 125
M  ZZM  21 37
M  ZZI  21 124
M  ZZM  22 63
M  ZZI  22 104
M  ZZM  23 64
M  ZZI  23 105
M  ZZM  24 1
M  ZZI  24 111
M  ZZM  25 66
M  ZZI  25 222
M  ZZM  26 63
M  ZZI  26 104
M  ZZM  27 44
M  ZZI  27 248
M  ZZM  28 37
M  ZZI  28 125
M  ZZM  29 37
M  ZZI  29 125
M  ZZM  30 1
M  ZZI  30 112
M  ZZM  31 1
M  ZZI  31 113
M  ZZM  32 6
M  ZZI  32 60
M  ZZM  33 1
M  ZZI  33 112
M  ZZM  34 5
M  ZZI  34 1
M  ZZM  35 5
M  ZZI  35 1
M  ZZM  36 5
M  ZZI  36 1
M  ZZM  37 28
M  ZZI  37 11
M  ZZM  38 5
M  ZZI  38 1
M  ZZM  39 5
M  ZZI  39 1
M  ZZM  40 5
M  ZZI  40 1
M  ZZM  41 5
M  ZZI  41 1
M  ZZM  42 5
M  ZZI  42 1
M  ZZM  43 5
M  ZZI  43 1
M  ZZM  44 5
M  ZZI  44 1
M  ZZM  45 5
M  ZZI  45 1
M  ZZM  46 5
M  ZZI  46 1
M  ZZM  47 5
M  ZZI  47 1
M  ZZM  48 5
M  ZZI  48 1
M  ZZM  49 28
M  ZZI  49 11
M  ZZM  50 5
M  ZZI  50 1
M  ZZM  51 5
M  ZZI  51 1
M  ZZM  52 5
M  ZZI  52 1
M  ZZM  53 5
M  ZZI  53 1
M  ZZM  54 5
M  ZZI  54 1
M  ZZM  55 5
M  ZZI  55 1
M  ZZM  56 5
M  ZZI  56 1
M  ZZM  57 5
M  ZZI  57 1
M  ZZM  58 5
M  ZZI  58 1
M  ZZM  59 5
M  ZZI  59 1
M  ZZM  60 5
M  ZZI  60 1
M  ZZM  61 5
M  ZZI  61 1
M  ZZM  62 5
M  ZZI  62 1
M  ZZM  63 21
M  ZZI  63 20
M  ZZM  64 5
M  ZZI  64 1
M  ZZM  65 5
M  ZZI  65 1
M  END
> <IX>
1

> <NAME>
VHL_6JQR_1.pdb

> <Score>
-11.393485

> <Natom>
65

> <Nflex>
8

> <Hbond>
-4.969791

> <Hphob>
-6.481922

> <VwInt>
-28.05081

> <Dsolv>
16.92175

> <SolEl>
17.211298

> <Eintl>
7.871693

> <RecConf>
ND

> <projPath>
VHL_maps/

> <NAME_>
VHL_6JQR_1.pdb

$$$$
