VHL_5EU1_14.pdb
  MOLSOFT 04032206403D

 66 68  0  0  1  0  0  0  0  0999 V2000
   16.7714   -5.9959   -5.8729 O   0  0  0  0  0  0  0  0  0  0  0  0
   17.7735   -5.3640   -5.5757 C   0  0  0  0  0  0  0  0  0  0  0  0
   17.7844   -4.1214   -4.9625 N   0  0  0  0  0  0  0  0  0  0  0  0
   16.5780   -3.3417   -4.6787 C   0  0  1  0  0  0  0  0  0  0  0  0
   15.9363   -3.6206   -3.2787 C   0  0  0  0  0  0  0  0  0  0  0  0
   16.8219   -3.1683   -2.1059 C   0  0  0  0  0  0  0  0  0  0  0  0
   15.6520   -5.1153   -3.0828 C   0  0  0  0  0  0  0  0  0  0  0  0
   14.5934   -2.8799   -3.1828 C   0  0  0  0  0  0  0  0  0  0  0  0
   16.9475   -1.8540   -4.8454 C   0  0  0  0  0  0  0  0  0  0  0  0
   17.8106   -1.3311   -4.1537 O   0  0  0  0  0  0  0  0  0  0  0  0
   16.2642   -1.1237   -5.8154 N   0  0  0  0  0  0  0  0  0  0  0  0
   16.2865    0.3296   -5.8491 C   0  0  2  0  0  0  0  0  0  0  0  0
   15.0420    0.8683   -5.1282 C   0  0  0  0  0  0  0  0  0  0  0  0
   13.9156    0.4428   -5.3509 O   0  0  0  0  0  0  0  0  0  0  0  0
   15.3015    1.8863   -4.2285 N   0  0  0  0  0  0  0  0  0  0  0  0
   14.2476    2.5072   -3.4471 C   0  0  0  0  0  0  0  0  0  0  0  0
   14.1345    1.8883   -2.0770 C   0  0  0  0  0  0  0  0  0  0  0  0
   14.6756    2.4928   -0.9483 C   0  0  0  0  0  0  0  0  0  0  0  0
   15.3030    3.7183   -1.0869 O   0  0  0  0  0  0  0  0  0  0  0  0
   14.6119    1.8940    0.3022 C   0  0  0  0  0  0  0  0  0  0  0  0
   14.0001    0.6527    0.4553 C   0  0  0  0  0  0  0  0  0  0  0  0
   13.9521   -0.0136    1.7522 C   0  0  0  0  0  0  0  0  0  0  0  0
   14.3012   -1.3086    2.1201 C   0  0  0  0  0  0  0  0  0  0  0  0
   14.9137   -2.3493    1.2608 C   0  0  0  0  0  0  0  0  0  0  0  0
   14.0632   -1.6271    3.4424 N   0  0  0  0  0  0  0  0  0  0  0  0
   13.5805   -0.5784    4.0693 C   0  0  0  0  0  0  0  0  0  0  0  0
   13.3941    0.8410    3.1388 S   0  0  0  0  0  0  0  0  0  0  0  0
   13.4424    0.0509   -0.6683 C   0  0  0  0  0  0  0  0  0  0  0  0
   13.5112    0.6565   -1.9111 C   0  0  0  0  0  0  0  0  0  0  0  0
   16.2305    0.6747   -7.3266 C   0  0  0  0  0  0  0  0  0  0  0  0
   15.5830   -0.5347   -7.9996 C   0  0  1  0  0  0  0  0  0  0  0  0
   16.3511   -0.9345   -9.1406 O   0  0  0  0  0  0  0  0  0  0  0  0
   15.5543   -1.6512   -6.9586 C   0  0  0  0  0  0  0  0  0  0  0  0
   19.1410   -5.9198   -5.8694 C   0  0  0  0  0  0  0  0  0  0  0  0
   18.6763   -3.6962   -4.7392 H   0  0  0  0  0  0  0  0  0  0  0  0
   15.8584   -3.6191   -5.4435 H   0  0  0  0  0  0  0  0  0  0  0  0
   17.8468   -3.5287   -2.2119 H   0  0  0  0  0  0  0  0  0  0  0  0
   16.4424   -3.5502   -1.1532 H   0  0  0  0  0  0  0  0  0  0  0  0
   16.8600   -2.0797   -2.0093 H   0  0  0  0  0  0  0  0  0  0  0  0
   15.0493   -5.5096   -3.9005 H   0  0  0  0  0  0  0  0  0  0  0  0
   15.0977   -5.3032   -2.1574 H   0  0  0  0  0  0  0  0  0  0  0  0
   16.5716   -5.7041   -3.0271 H   0  0  0  0  0  0  0  0  0  0  0  0
   13.9021   -3.1998   -3.9687 H   0  0  0  0  0  0  0  0  0  0  0  0
   14.7179   -1.7984   -3.2772 H   0  0  0  0  0  0  0  0  0  0  0  0
   14.1032   -3.0612   -2.2215 H   0  0  0  0  0  0  0  0  0  0  0  0
   17.1943    0.7196   -5.3749 H   0  0  0  0  0  0  0  0  0  0  0  0
   16.2551    2.1803   -4.0479 H   0  0  0  0  0  0  0  0  0  0  0  0
   14.4677    3.5774   -3.3911 H   0  0  0  0  0  0  0  0  0  0  0  0
   13.2925    2.4151   -3.9731 H   0  0  0  0  0  0  0  0  0  0  0  0
   15.6116    4.0022   -0.2093 H   0  0  0  0  0  0  0  0  0  0  0  0
   15.0617    2.3883    1.1575 H   0  0  0  0  0  0  0  0  0  0  0  0
   14.2222   -2.6688    0.4757 H   0  0  0  0  0  0  0  0  0  0  0  0
   15.1751   -3.2323    1.8507 H   0  0  0  0  0  0  0  0  0  0  0  0
   15.8195   -1.9814    0.7740 H   0  0  0  0  0  0  0  0  0  0  0  0
   13.3198   -0.6015    5.1175 H   0  0  0  0  0  0  0  0  0  0  0  0
   12.9399   -0.9084   -0.5868 H   0  0  0  0  0  0  0  0  0  0  0  0
   13.0845    0.1455   -2.7689 H   0  0  0  0  0  0  0  0  0  0  0  0
   15.6638    1.5911   -7.5224 H   0  0  0  0  0  0  0  0  0  0  0  0
   17.2428    0.8427   -7.7088 H   0  0  0  0  0  0  0  0  0  0  0  0
   14.5720   -0.2978   -8.3360 H   0  0  0  0  0  0  0  0  0  0  0  0
   17.2920   -0.8777   -8.8857 H   0  0  0  0  0  0  0  0  0  0  0  0
   16.0096   -2.5802   -7.3091 H   0  0  0  0  0  0  0  0  0  0  0  0
   14.5298   -1.8609   -6.6378 H   0  0  0  0  0  0  0  0  0  0  0  0
   19.1773   -6.2582   -6.9085 H   0  0  0  0  0  0  0  0  0  0  0  0
   19.3371   -6.7670   -5.2073 H   0  0  0  0  0  0  0  0  0  0  0  0
   19.9186   -5.1665   -5.7345 H   0  0  0  0  0  0  0  0  0  0  0  0
  1  2  2  0  0  0  0
  2  3  1  0  0  0  0
  2 34  1  0  0  0  0
  4  3  1  0  0  0  0
  3 35  1  0  0  0  0
  4  5  1  0  0  0  0
  4 36  1  0  0  0  0
  4  9  1  0  0  0  0
  5  6  1  0  0  0  0
  5  7  1  0  0  0  0
  5  8  1  0  0  0  0
  6 37  1  0  0  0  0
  6 38  1  0  0  0  0
  6 39  1  0  0  0  0
  7 40  1  0  0  0  0
  7 41  1  0  0  0  0
  7 42  1  0  0  0  0
  8 43  1  0  0  0  0
  8 44  1  0  0  0  0
  8 45  1  0  0  0  0
  9 10  2  0  0  0  0
  9 11  1  0  0  0  0
 11 33  1  0  0  0  0
 12 11  1  0  0  0  0
 12 30  1  0  0  0  0
 12 46  1  0  0  0  0
 12 13  1  0  0  0  0
 13 14  2  0  0  0  0
 13 15  1  0  0  0  0
 15 47  1  0  0  0  0
 15 16  1  0  0  0  0
 16 48  1  0  0  0  0
 16 49  1  0  0  0  0
 16 17  1  0  0  0  0
 17 18  2  0  0  0  0
 17 29  1  0  0  0  0
 18 19  1  0  0  0  0
 18 20  1  0  0  0  0
 19 50  1  0  0  0  0
 20 51  1  0  0  0  0
 20 21  2  0  0  0  0
 21 28  1  0  0  0  0
 21 22  1  0  0  0  0
 22 23  2  0  0  0  0
 22 27  1  0  0  0  0
 23 24  1  0  0  0  0
 23 25  1  0  0  0  0
 24 52  1  0  0  0  0
 24 53  1  0  0  0  0
 24 54  1  0  0  0  0
 25 26  2  0  0  0  0
 26 55  1  0  0  0  0
 26 27  1  0  0  0  0
 28 56  1  0  0  0  0
 28 29  2  0  0  0  0
 29 57  1  0  0  0  0
 31 30  1  0  0  0  0
 30 58  1  0  0  0  0
 30 59  1  0  0  0  0
 31 33  1  0  0  0  0
 31 60  1  0  0  0  0
 31 32  1  0  0  0  0
 32 61  1  0  0  0  0
 33 62  1  0  0  0  0
 33 63  1  0  0  0  0
 34 64  1  0  0  0  0
 34 65  1  0  0  0  0
 34 66  1  0  0  0  0
M  ZZC   1 o1
M  ZZC   2 c1
M  ZZC   3 n1
M  ZZC   4 c2
M  ZZC   5 c3
M  ZZC   6 c4
M  ZZC   7 c5
M  ZZC   8 c6
M  ZZC   9 c7
M  ZZC  10 o2
M  ZZC  11 n2
M  ZZC  12 c8
M  ZZC  13 c9
M  ZZC  14 o3
M  ZZC  15 n3
M  ZZC  16 c10
M  ZZC  17 c11
M  ZZC  18 c12
M  ZZC  19 o4
M  ZZC  20 c13
M  ZZC  21 c14
M  ZZC  22 c15
M  ZZC  23 c16
M  ZZC  24 c17
M  ZZC  25 n4
M  ZZC  26 c18
M  ZZC  27 s1
M  ZZC  28 c19
M  ZZC  29 c20
M  ZZC  30 c21
M  ZZC  31 c22
M  ZZC  32 o5
M  ZZC  33 c23
M  ZZC  34 c24
M  ZZC  35 h11
M  ZZC  36 h21
M  ZZC  37 h41
M  ZZC  38 h42
M  ZZC  39 h43
M  ZZC  40 h51
M  ZZC  41 h52
M  ZZC  42 h53
M  ZZC  43 h61
M  ZZC  44 h62
M  ZZC  45 h63
M  ZZC  46 h81
M  ZZC  47 h31
M  ZZC  48 h101
M  ZZC  49 h102
M  ZZC  50 h01
M  ZZC  51 h131
M  ZZC  52 h171
M  ZZC  53 h172
M  ZZC  54 h173
M  ZZC  55 h181
M  ZZC  56 h191
M  ZZC  57 h201
M  ZZC  58 h211
M  ZZC  59 h212
M  ZZC  60 h221
M  ZZC  61 h02
M  ZZC  62 h231
M  ZZC  63 h232
M  ZZC  64 h241
M  ZZC  65 h242
M  ZZC  66 h243
M  ZZM   1 7
M  ZZI   1 81
M  ZZM   2 3
M  ZZI   2 121
M  ZZM   3 10
M  ZZI   3 211
M  ZZM   4 1
M  ZZI   4 113
M  ZZM   5 1
M  ZZI   5 110
M  ZZM   6 1
M  ZZI   6 111
M  ZZM   7 1
M  ZZI   7 111
M  ZZM   8 1
M  ZZI   8 111
M  ZZM   9 3
M  ZZI   9 121
M  ZZM  10 7
M  ZZI  10 81
M  ZZM  11 10
M  ZZI  11 192
M  ZZM  12 1
M  ZZI  12 113
M  ZZM  13 3
M  ZZI  13 121
M  ZZM  14 7
M  ZZI  14 81
M  ZZM  15 10
M  ZZI  15 211
M  ZZM  16 1
M  ZZI  16 112
M  ZZM  17 37
M  ZZI  17 124
M  ZZM  18 37
M  ZZI  18 124
M  ZZM  19 6
M  ZZI  19 62
M  ZZM  20 37
M  ZZI  20 125
M  ZZM  21 37
M  ZZI  21 124
M  ZZM  22 63
M  ZZI  22 104
M  ZZM  23 64
M  ZZI  23 105
M  ZZM  24 1
M  ZZI  24 111
M  ZZM  25 66
M  ZZI  25 222
M  ZZM  26 63
M  ZZI  26 104
M  ZZM  27 44
M  ZZI  27 248
M  ZZM  28 37
M  ZZI  28 125
M  ZZM  29 37
M  ZZI  29 125
M  ZZM  30 1
M  ZZI  30 112
M  ZZM  31 1
M  ZZI  31 113
M  ZZM  32 6
M  ZZI  32 60
M  ZZM  33 1
M  ZZI  33 112
M  ZZM  34 1
M  ZZI  34 111
M  ZZM  35 28
M  ZZI  35 11
M  ZZM  36 5
M  ZZI  36 1
M  ZZM  37 5
M  ZZI  37 1
M  ZZM  38 5
M  ZZI  38 1
M  ZZM  39 5
M  ZZI  39 1
M  ZZM  40 5
M  ZZI  40 1
M  ZZM  41 5
M  ZZI  41 1
M  ZZM  42 5
M  ZZI  42 1
M  ZZM  43 5
M  ZZI  43 1
M  ZZM  44 5
M  ZZI  44 1
M  ZZM  45 5
M  ZZI  45 1
M  ZZM  46 5
M  ZZI  46 1
M  ZZM  47 28
M  ZZI  47 11
M  ZZM  48 5
M  ZZI  48 1
M  ZZM  49 5
M  ZZI  49 1
M  ZZM  50 29
M  ZZI  50 27
M  ZZM  51 5
M  ZZI  51 1
M  ZZM  52 5
M  ZZI  52 1
M  ZZM  53 5
M  ZZI  53 1
M  ZZM  54 5
M  ZZI  54 1
M  ZZM  55 5
M  ZZI  55 1
M  ZZM  56 5
M  ZZI  56 1
M  ZZM  57 5
M  ZZI  57 1
M  ZZM  58 5
M  ZZI  58 1
M  ZZM  59 5
M  ZZI  59 1
M  ZZM  60 5
M  ZZI  60 1
M  ZZM  61 21
M  ZZI  61 20
M  ZZM  62 5
M  ZZI  62 1
M  ZZM  63 5
M  ZZI  63 1
M  ZZM  64 5
M  ZZI  64 1
M  ZZM  65 5
M  ZZI  65 1
M  ZZM  66 5
M  ZZI  66 1
M  END
> <IX>
1

> <NAME>
VHL_5EU1_14.pdb

> <Score>
-25.940408

> <Natom>
66

> <Nflex>
8

> <Hbond>
-7.316245

> <Hphob>
-6.894562

> <VwInt>
-27.760297

> <Dsolv>
15.414123

> <SolEl>
6.175001

> <Eintl>
7.522087

> <RecConf>
ND

> <projPath>
VHL_maps/

> <NAME_>
VHL_5EU1_14.pdb

$$$$
