VHL_5EHR_19.pdb
  MOLSOFT 04032206383D

 68 70  0  0  1  0  0  0  0  0999 V2000
   15.6774   -4.3381  -15.5795 C   0  0  0  0  0  0  0  0  0  0  0  0
   15.1933   -3.7756  -16.8826 C   0  0  0  0  0  0  0  0  0  0  0  0
   15.3476   -4.3728  -17.9374 O   0  0  0  0  0  0  0  0  0  0  0  0
   14.6183   -2.5263  -16.7575 N   0  0  0  0  0  0  0  0  0  0  0  0
   14.1301   -1.7867  -17.9253 C   0  0  2  0  0  0  0  0  0  0  0  0
   15.1167   -0.6672  -18.3816 C   0  0  0  0  0  0  0  0  0  0  0  0
   14.6219   -0.0084  -19.6782 C   0  0  0  0  0  0  0  0  0  0  0  0
   16.5011   -1.2718  -18.6701 C   0  0  0  0  0  0  0  0  0  0  0  0
   15.2792    0.4369  -17.3235 C   0  0  0  0  0  0  0  0  0  0  0  0
   12.7523   -1.2272  -17.5430 C   0  0  0  0  0  0  0  0  0  0  0  0
   12.5951   -0.6154  -16.4960 O   0  0  0  0  0  0  0  0  0  0  0  0
   11.7013   -1.4241  -18.4393 N   0  0  0  0  0  0  0  0  0  0  0  0
   10.4533   -0.6772  -18.3089 C   0  0  2  0  0  0  0  0  0  0  0  0
    9.5619   -1.0975  -17.1322 C   0  0  0  0  0  0  0  0  0  0  0  0
    9.8710   -1.9652  -16.3277 O   0  0  0  0  0  0  0  0  0  0  0  0
    8.4005   -0.3498  -17.0578 N   0  0  0  0  0  0  0  0  0  0  0  0
    7.3822   -0.5244  -16.0360 C   0  0  1  0  0  0  0  0  0  0  0  0
    7.7598    0.2208  -14.7565 C   0  0  0  0  0  0  0  0  0  0  0  0
    6.0360   -0.0867  -16.5845 C   0  0  0  0  0  0  0  0  0  0  0  0
    5.0106   -1.0148  -16.7477 C   0  0  0  0  0  0  0  0  0  0  0  0
    3.8112   -0.6567  -17.3426 C   0  0  0  0  0  0  0  0  0  0  0  0
    3.6011    0.6396  -17.7962 C   0  0  0  0  0  0  0  0  0  0  0  0
    2.3695    0.9929  -18.4845 C   0  0  0  0  0  0  0  0  0  0  0  0
    2.0661    0.9936  -19.8385 C   0  0  0  0  0  0  0  0  0  0  0  0
    2.9801    0.6396  -20.9483 C   0  0  0  0  0  0  0  0  0  0  0  0
    0.7699    1.3639  -20.1450 N   0  0  0  0  0  0  0  0  0  0  0  0
    0.1264    1.6756  -19.0421 C   0  0  0  0  0  0  0  0  0  0  0  0
    0.9980    1.4987  -17.5857 S   0  0  0  0  0  0  0  0  0  0  0  0
    4.6039    1.5809  -17.6056 C   0  0  0  0  0  0  0  0  0  0  0  0
    5.7995    1.2240  -17.0027 C   0  0  0  0  0  0  0  0  0  0  0  0
    9.7531   -0.8794  -19.6517 C   0  0  0  0  0  0  0  0  0  0  0  0
   10.2748   -2.2212  -20.1275 C   0  0  1  0  0  0  0  0  0  0  0  0
   10.1769   -2.3411  -21.5451 O   0  0  0  0  0  0  0  0  0  0  0  0
   11.7205   -2.1985  -19.6680 C   0  0  0  0  0  0  0  0  0  0  0  0
   14.9022   -4.2567  -14.8151 H   0  0  0  0  0  0  0  0  0  0  0  0
   16.5649   -3.7846  -15.2660 H   0  0  0  0  0  0  0  0  0  0  0  0
   15.9359   -5.3937  -15.7037 H   0  0  0  0  0  0  0  0  0  0  0  0
   14.5098   -2.1114  -15.8322 H   0  0  0  0  0  0  0  0  0  0  0  0
   14.0211   -2.5076  -18.7386 H   0  0  0  0  0  0  0  0  0  0  0  0
   15.3107    0.7717  -20.0170 H   0  0  0  0  0  0  0  0  0  0  0  0
   13.6447    0.4647  -19.5364 H   0  0  0  0  0  0  0  0  0  0  0  0
   14.5088   -0.7331  -20.4904 H   0  0  0  0  0  0  0  0  0  0  0  0
   16.9666   -1.6798  -17.7680 H   0  0  0  0  0  0  0  0  0  0  0  0
   17.1909   -0.5213  -19.0699 H   0  0  0  0  0  0  0  0  0  0  0  0
   16.4398   -2.0787  -19.4072 H   0  0  0  0  0  0  0  0  0  0  0  0
   14.3775    1.0471  -17.2345 H   0  0  0  0  0  0  0  0  0  0  0  0
   16.0905    1.1236  -17.5845 H   0  0  0  0  0  0  0  0  0  0  0  0
   15.5014    0.0264  -16.3341 H   0  0  0  0  0  0  0  0  0  0  0  0
   10.7018    0.3775  -18.1665 H   0  0  0  0  0  0  0  0  0  0  0  0
    8.2585    0.3918  -17.7327 H   0  0  0  0  0  0  0  0  0  0  0  0
    7.3467   -1.5930  -15.7975 H   0  0  0  0  0  0  0  0  0  0  0  0
    8.7041   -0.1526  -14.3475 H   0  0  0  0  0  0  0  0  0  0  0  0
    6.9902    0.1044  -13.9868 H   0  0  0  0  0  0  0  0  0  0  0  0
    7.8931    1.2908  -14.9390 H   0  0  0  0  0  0  0  0  0  0  0  0
    5.1496   -2.0454  -16.4328 H   0  0  0  0  0  0  0  0  0  0  0  0
    3.0402   -1.4109  -17.4708 H   0  0  0  0  0  0  0  0  0  0  0  0
    3.8273    1.3302  -20.9873 H   0  0  0  0  0  0  0  0  0  0  0  0
    2.4664    0.6867  -21.9130 H   0  0  0  0  0  0  0  0  0  0  0  0
    3.3669   -0.3760  -20.8250 H   0  0  0  0  0  0  0  0  0  0  0  0
   -0.8981    2.0189  -19.0459 H   0  0  0  0  0  0  0  0  0  0  0  0
    4.4573    2.6044  -17.9379 H   0  0  0  0  0  0  0  0  0  0  0  0
    6.5672    1.9824  -16.8861 H   0  0  0  0  0  0  0  0  0  0  0  0
    8.6594   -0.8661  -19.6103 H   0  0  0  0  0  0  0  0  0  0  0  0
   10.0473   -0.0930  -20.3570 H   0  0  0  0  0  0  0  0  0  0  0  0
    9.7279   -3.0453  -19.6545 H   0  0  0  0  0  0  0  0  0  0  0  0
    9.2319   -2.3168  -21.7771 H   0  0  0  0  0  0  0  0  0  0  0  0
   12.3643   -1.6979  -20.3978 H   0  0  0  0  0  0  0  0  0  0  0  0
   12.1221   -3.2028  -19.5077 H   0  0  0  0  0  0  0  0  0  0  0  0
  1 35  1  0  0  0  0
  1 36  1  0  0  0  0
  1 37  1  0  0  0  0
  1  2  1  0  0  0  0
  2  3  2  0  0  0  0
  2  4  1  0  0  0  0
  4 38  1  0  0  0  0
  5  4  1  0  0  0  0
  5 39  1  0  0  0  0
  5  6  1  0  0  0  0
  5 10  1  0  0  0  0
  6  7  1  0  0  0  0
  6  8  1  0  0  0  0
  6  9  1  0  0  0  0
  7 40  1  0  0  0  0
  7 41  1  0  0  0  0
  7 42  1  0  0  0  0
  8 43  1  0  0  0  0
  8 44  1  0  0  0  0
  8 45  1  0  0  0  0
  9 46  1  0  0  0  0
  9 47  1  0  0  0  0
  9 48  1  0  0  0  0
 10 11  2  0  0  0  0
 10 12  1  0  0  0  0
 12 34  1  0  0  0  0
 13 12  1  0  0  0  0
 13 31  1  0  0  0  0
 13 49  1  0  0  0  0
 13 14  1  0  0  0  0
 14 15  2  0  0  0  0
 14 16  1  0  0  0  0
 16 50  1  0  0  0  0
 17 16  1  0  0  0  0
 17 51  1  0  0  0  0
 17 18  1  0  0  0  0
 17 19  1  0  0  0  0
 18 52  1  0  0  0  0
 18 53  1  0  0  0  0
 18 54  1  0  0  0  0
 19 20  1  0  0  0  0
 19 30  2  0  0  0  0
 20 55  1  0  0  0  0
 20 21  2  0  0  0  0
 21 56  1  0  0  0  0
 21 22  1  0  0  0  0
 22 29  2  0  0  0  0
 22 23  1  0  0  0  0
 23 24  2  0  0  0  0
 23 28  1  0  0  0  0
 24 25  1  0  0  0  0
 24 26  1  0  0  0  0
 25 57  1  0  0  0  0
 25 58  1  0  0  0  0
 25 59  1  0  0  0  0
 26 27  2  0  0  0  0
 27 60  1  0  0  0  0
 27 28  1  0  0  0  0
 29 61  1  0  0  0  0
 29 30  1  0  0  0  0
 30 62  1  0  0  0  0
 32 31  1  0  0  0  0
 31 63  1  0  0  0  0
 31 64  1  0  0  0  0
 32 34  1  0  0  0  0
 32 65  1  0  0  0  0
 32 33  1  0  0  0  0
 33 66  1  0  0  0  0
 34 67  1  0  0  0  0
 34 68  1  0  0  0  0
M  ZZC   1 c1
M  ZZC   2 c2
M  ZZC   3 o1
M  ZZC   4 n1
M  ZZC   5 c3
M  ZZC   6 c4
M  ZZC   7 c5
M  ZZC   8 c6
M  ZZC   9 c7
M  ZZC  10 c8
M  ZZC  11 o2
M  ZZC  12 n2
M  ZZC  13 c9
M  ZZC  14 c10
M  ZZC  15 o3
M  ZZC  16 n3
M  ZZC  17 c11
M  ZZC  18 c12
M  ZZC  19 c13
M  ZZC  20 c14
M  ZZC  21 c15
M  ZZC  22 c16
M  ZZC  23 c17
M  ZZC  24 c18
M  ZZC  25 c19
M  ZZC  26 n4
M  ZZC  27 c20
M  ZZC  28 s1
M  ZZC  29 c21
M  ZZC  30 c22
M  ZZC  31 c23
M  ZZC  32 c24
M  ZZC  33 o4
M  ZZC  34 c25
M  ZZC  35 h11
M  ZZC  36 h12
M  ZZC  37 h13
M  ZZC  38 h01
M  ZZC  39 h31
M  ZZC  40 h51
M  ZZC  41 h52
M  ZZC  42 h53
M  ZZC  43 h61
M  ZZC  44 h62
M  ZZC  45 h63
M  ZZC  46 h71
M  ZZC  47 h72
M  ZZC  48 h73
M  ZZC  49 h91
M  ZZC  50 h02
M  ZZC  51 h111
M  ZZC  52 h121
M  ZZC  53 h122
M  ZZC  54 h123
M  ZZC  55 h141
M  ZZC  56 h151
M  ZZC  57 h191
M  ZZC  58 h192
M  ZZC  59 h193
M  ZZC  60 h201
M  ZZC  61 h211
M  ZZC  62 h221
M  ZZC  63 h231
M  ZZC  64 h232
M  ZZC  65 h241
M  ZZC  66 h41
M  ZZC  67 h251
M  ZZC  68 h252
M  ZZM   1 1
M  ZZI   1 111
M  ZZM   2 3
M  ZZI   2 121
M  ZZM   3 7
M  ZZI   3 81
M  ZZM   4 10
M  ZZI   4 211
M  ZZM   5 1
M  ZZI   5 113
M  ZZM   6 1
M  ZZI   6 110
M  ZZM   7 1
M  ZZI   7 111
M  ZZM   8 1
M  ZZI   8 111
M  ZZM   9 1
M  ZZI   9 111
M  ZZM  10 3
M  ZZI  10 121
M  ZZM  11 7
M  ZZI  11 81
M  ZZM  12 10
M  ZZI  12 192
M  ZZM  13 1
M  ZZI  13 113
M  ZZM  14 3
M  ZZI  14 121
M  ZZM  15 7
M  ZZI  15 81
M  ZZM  16 10
M  ZZI  16 211
M  ZZM  17 1
M  ZZI  17 113
M  ZZM  18 1
M  ZZI  18 111
M  ZZM  19 37
M  ZZI  19 124
M  ZZM  20 37
M  ZZI  20 125
M  ZZM  21 37
M  ZZI  21 125
M  ZZM  22 37
M  ZZI  22 124
M  ZZM  23 63
M  ZZI  23 104
M  ZZM  24 64
M  ZZI  24 105
M  ZZM  25 1
M  ZZI  25 111
M  ZZM  26 66
M  ZZI  26 222
M  ZZM  27 63
M  ZZI  27 104
M  ZZM  28 44
M  ZZI  28 248
M  ZZM  29 37
M  ZZI  29 125
M  ZZM  30 37
M  ZZI  30 125
M  ZZM  31 1
M  ZZI  31 112
M  ZZM  32 1
M  ZZI  32 113
M  ZZM  33 6
M  ZZI  33 60
M  ZZM  34 1
M  ZZI  34 112
M  ZZM  35 5
M  ZZI  35 1
M  ZZM  36 5
M  ZZI  36 1
M  ZZM  37 5
M  ZZI  37 1
M  ZZM  38 28
M  ZZI  38 11
M  ZZM  39 5
M  ZZI  39 1
M  ZZM  40 5
M  ZZI  40 1
M  ZZM  41 5
M  ZZI  41 1
M  ZZM  42 5
M  ZZI  42 1
M  ZZM  43 5
M  ZZI  43 1
M  ZZM  44 5
M  ZZI  44 1
M  ZZM  45 5
M  ZZI  45 1
M  ZZM  46 5
M  ZZI  46 1
M  ZZM  47 5
M  ZZI  47 1
M  ZZM  48 5
M  ZZI  48 1
M  ZZM  49 5
M  ZZI  49 1
M  ZZM  50 28
M  ZZI  50 11
M  ZZM  51 5
M  ZZI  51 1
M  ZZM  52 5
M  ZZI  52 1
M  ZZM  53 5
M  ZZI  53 1
M  ZZM  54 5
M  ZZI  54 1
M  ZZM  55 5
M  ZZI  55 1
M  ZZM  56 5
M  ZZI  56 1
M  ZZM  57 5
M  ZZI  57 1
M  ZZM  58 5
M  ZZI  58 1
M  ZZM  59 5
M  ZZI  59 1
M  ZZM  60 5
M  ZZI  60 1
M  ZZM  61 5
M  ZZI  61 1
M  ZZM  62 5
M  ZZI  62 1
M  ZZM  63 5
M  ZZI  63 1
M  ZZM  64 5
M  ZZI  64 1
M  ZZM  65 5
M  ZZI  65 1
M  ZZM  66 21
M  ZZI  66 20
M  ZZM  67 5
M  ZZI  67 1
M  ZZM  68 5
M  ZZI  68 1
M  END
> <IX>
1

> <NAME>
VHL_5EHR_19.pdb

> <Score>
-16.272888

> <Natom>
68

> <Nflex>
8

> <Hbond>
-3.941315

> <Hphob>
-6.344954

> <VwInt>
-30.372039

> <Dsolv>
16.304004

> <SolEl>
11.790868

> <Eintl>
5.853036

> <RecConf>
ND

> <projPath>
VHL_maps/

> <NAME_>
VHL_5EHR_19.pdb

$$$$
