VHL_6HAZ_1.pdb
  MOLSOFT 04032206433D

 70 73  0  0  1  0  0  0  0  0999 V2000
   18.7407   -5.3891   -5.9385 F   0  0  0  0  0  0  0  0  0  0  0  0
   17.6992   -5.9698   -5.2205 C   0  0  0  0  0  0  0  0  0  0  0  0
   16.8199   -5.0270   -4.4632 C   0  0  0  0  0  0  0  0  0  0  0  0
   15.7504   -5.3890   -3.9950 O   0  0  0  0  0  0  0  0  0  0  0  0
   17.3011   -3.7375   -4.3667 N   0  0  0  0  0  0  0  0  0  0  0  0
   16.4597   -2.6150   -3.9320 C   0  0  1  0  0  0  0  0  0  0  0  0
   16.6645   -2.1748   -2.4495 C   0  0  0  0  0  0  0  0  0  0  0  0
   16.4418   -3.3685   -1.5065 C   0  0  0  0  0  0  0  0  0  0  0  0
   15.6368   -1.0980   -2.0683 C   0  0  0  0  0  0  0  0  0  0  0  0
   18.0663   -1.6061   -2.1921 C   0  0  0  0  0  0  0  0  0  0  0  0
   16.7422   -1.5105   -4.9716 C   0  0  0  0  0  0  0  0  0  0  0  0
   17.8926   -1.1965   -5.2546 O   0  0  0  0  0  0  0  0  0  0  0  0
   15.6406   -0.9397   -5.6115 N   0  0  0  0  0  0  0  0  0  0  0  0
   15.8050   -0.0973   -6.7903 C   0  0  2  0  0  0  0  0  0  0  0  0
   16.1184    1.3584   -6.4239 C   0  0  0  0  0  0  0  0  0  0  0  0
   15.3163    2.0938   -5.8643 O   0  0  0  0  0  0  0  0  0  0  0  0
   17.4025    1.7414   -6.7589 N   0  0  0  0  0  0  0  0  0  0  0  0
   17.9311    3.0620   -6.4614 C   0  0  0  0  0  0  0  0  0  0  0  0
   19.3314    3.2948   -6.9869 C   0  0  0  0  0  0  0  0  0  0  0  0
   20.2790    2.2808   -7.0396 C   0  0  0  0  0  0  0  0  0  0  0  0
   19.9366    1.0196   -6.6095 O   0  0  0  0  0  0  0  0  0  0  0  0
   21.5640    2.4836   -7.4981 C   0  0  0  0  0  0  0  0  0  0  0  0
   21.9690    3.7450   -7.8954 C   0  0  0  0  0  0  0  0  0  0  0  0
   23.3440    3.9457   -8.3206 C   0  0  0  0  0  0  0  0  0  0  0  0
   24.4762    4.2484   -7.5779 C   0  0  0  0  0  0  0  0  0  0  0  0
   24.5384    4.5071   -6.1214 C   0  0  0  0  0  0  0  0  0  0  0  0
   25.6535    4.2835   -8.2979 N   0  0  0  0  0  0  0  0  0  0  0  0
   25.4052    4.0288   -9.5631 C   0  0  0  0  0  0  0  0  0  0  0  0
   23.7731    3.7385   -9.9698 S   0  0  0  0  0  0  0  0  0  0  0  0
   21.0451    4.7840   -7.8432 C   0  0  0  0  0  0  0  0  0  0  0  0
   19.7460    4.5614   -7.3980 C   0  0  0  0  0  0  0  0  0  0  0  0
   14.4701   -0.2215   -7.5057 C   0  0  0  0  0  0  0  0  0  0  0  0
   13.4567   -0.4410   -6.3939 C   0  0  1  0  0  0  0  0  0  0  0  0
   12.3351   -1.1993   -6.8493 O   0  0  0  0  0  0  0  0  0  0  0  0
   14.2393   -1.2390   -5.3668 C   0  0  0  0  0  0  0  0  0  0  0  0
   17.1200   -7.2088   -5.8655 C   0  0  0  0  0  0  0  0  0  0  0  0
   18.0079   -7.3358   -4.6732 C   0  0  0  0  0  0  0  0  0  0  0  0
   18.2264   -3.5425   -4.7428 H   0  0  0  0  0  0  0  0  0  0  0  0
   15.4274   -2.9559   -4.0345 H   0  0  0  0  0  0  0  0  0  0  0  0
   16.5095   -3.0683   -0.4558 H   0  0  0  0  0  0  0  0  0  0  0  0
   17.1867   -4.1520   -1.6594 H   0  0  0  0  0  0  0  0  0  0  0  0
   15.4528   -3.8162   -1.6514 H   0  0  0  0  0  0  0  0  0  0  0  0
   15.7427   -0.2058   -2.6942 H   0  0  0  0  0  0  0  0  0  0  0  0
   15.7621   -0.7752   -1.0296 H   0  0  0  0  0  0  0  0  0  0  0  0
   14.6087   -1.4527   -2.1900 H   0  0  0  0  0  0  0  0  0  0  0  0
   18.2205   -1.3859   -1.1310 H   0  0  0  0  0  0  0  0  0  0  0  0
   18.2394   -0.6733   -2.7365 H   0  0  0  0  0  0  0  0  0  0  0  0
   18.8396   -2.3141   -2.4875 H   0  0  0  0  0  0  0  0  0  0  0  0
   16.6098   -0.4963   -7.4192 H   0  0  0  0  0  0  0  0  0  0  0  0
   18.0561    1.0334   -7.0884 H   0  0  0  0  0  0  0  0  0  0  0  0
   17.2355    3.7924   -6.8895 H   0  0  0  0  0  0  0  0  0  0  0  0
   17.9201    3.1915   -5.3738 H   0  0  0  0  0  0  0  0  0  0  0  0
   20.3802    0.3907   -7.2066 H   0  0  0  0  0  0  0  0  0  0  0  0
   22.2575    1.6519   -7.5327 H   0  0  0  0  0  0  0  0  0  0  0  0
   23.9560    5.3953   -5.8604 H   0  0  0  0  0  0  0  0  0  0  0  0
   25.5692    4.6707   -5.7935 H   0  0  0  0  0  0  0  0  0  0  0  0
   24.1428    3.6583   -5.5578 H   0  0  0  0  0  0  0  0  0  0  0  0
   26.1841    4.0019  -10.3117 H   0  0  0  0  0  0  0  0  0  0  0  0
   21.3347    5.7848   -8.1498 H   0  0  0  0  0  0  0  0  0  0  0  0
   19.0522    5.3968   -7.3690 H   0  0  0  0  0  0  0  0  0  0  0  0
   14.2198    0.6409   -8.1328 H   0  0  0  0  0  0  0  0  0  0  0  0
   14.4992   -1.1033   -8.1528 H   0  0  0  0  0  0  0  0  0  0  0  0
   13.1034    0.5065   -5.9728 H   0  0  0  0  0  0  0  0  0  0  0  0
   11.8733   -0.6839   -7.5360 H   0  0  0  0  0  0  0  0  0  0  0  0
   14.0680   -2.3142   -5.4752 H   0  0  0  0  0  0  0  0  0  0  0  0
   13.9654   -0.9561   -4.3478 H   0  0  0  0  0  0  0  0  0  0  0  0
   16.0712   -7.4290   -5.7333 H   0  0  0  0  0  0  0  0  0  0  0  0
   17.5266   -7.5470   -6.8072 H   0  0  0  0  0  0  0  0  0  0  0  0
   18.9996   -7.7306   -4.8467 H   0  0  0  0  0  0  0  0  0  0  0  0
   17.5501   -7.6368   -3.7415 H   0  0  0  0  0  0  0  0  0  0  0  0
  2  1  1  0  0  0  0
  2 36  1  0  0  0  0
  2  3  1  0  0  0  0
  2 37  1  0  0  0  0
  3  4  2  0  0  0  0
  3  5  1  0  0  0  0
  5 38  1  0  0  0  0
  6  5  1  0  0  0  0
  6 39  1  0  0  0  0
  6  7  1  0  0  0  0
  6 11  1  0  0  0  0
  7  8  1  0  0  0  0
  7  9  1  0  0  0  0
  7 10  1  0  0  0  0
  8 40  1  0  0  0  0
  8 41  1  0  0  0  0
  8 42  1  0  0  0  0
  9 43  1  0  0  0  0
  9 44  1  0  0  0  0
  9 45  1  0  0  0  0
 10 46  1  0  0  0  0
 10 47  1  0  0  0  0
 10 48  1  0  0  0  0
 11 12  2  0  0  0  0
 11 13  1  0  0  0  0
 13 35  1  0  0  0  0
 14 13  1  0  0  0  0
 14 32  1  0  0  0  0
 14 49  1  0  0  0  0
 14 15  1  0  0  0  0
 15 16  2  0  0  0  0
 15 17  1  0  0  0  0
 17 50  1  0  0  0  0
 17 18  1  0  0  0  0
 18 51  1  0  0  0  0
 18 52  1  0  0  0  0
 18 19  1  0  0  0  0
 19 20  2  0  0  0  0
 19 31  1  0  0  0  0
 20 21  1  0  0  0  0
 20 22  1  0  0  0  0
 21 53  1  0  0  0  0
 22 54  1  0  0  0  0
 22 23  2  0  0  0  0
 23 30  1  0  0  0  0
 23 24  1  0  0  0  0
 24 25  2  0  0  0  0
 24 29  1  0  0  0  0
 25 26  1  0  0  0  0
 25 27  1  0  0  0  0
 26 55  1  0  0  0  0
 26 56  1  0  0  0  0
 26 57  1  0  0  0  0
 27 28  2  0  0  0  0
 28 58  1  0  0  0  0
 28 29  1  0  0  0  0
 30 59  1  0  0  0  0
 30 31  2  0  0  0  0
 31 60  1  0  0  0  0
 33 32  1  0  0  0  0
 32 61  1  0  0  0  0
 32 62  1  0  0  0  0
 33 35  1  0  0  0  0
 33 63  1  0  0  0  0
 33 34  1  0  0  0  0
 34 64  1  0  0  0  0
 35 65  1  0  0  0  0
 35 66  1  0  0  0  0
 36 67  1  0  0  0  0
 36 68  1  0  0  0  0
 36 37  1  0  0  0  0
 37 69  1  0  0  0  0
 37 70  1  0  0  0  0
M  ZZC   1 f1
M  ZZC   2 c1
M  ZZC   3 c2
M  ZZC   4 o1
M  ZZC   5 n1
M  ZZC   6 c3
M  ZZC   7 c4
M  ZZC   8 c5
M  ZZC   9 c6
M  ZZC  10 c7
M  ZZC  11 c8
M  ZZC  12 o2
M  ZZC  13 n2
M  ZZC  14 c9
M  ZZC  15 c10
M  ZZC  16 o3
M  ZZC  17 n3
M  ZZC  18 c11
M  ZZC  19 c12
M  ZZC  20 c13
M  ZZC  21 o4
M  ZZC  22 c14
M  ZZC  23 c15
M  ZZC  24 c16
M  ZZC  25 c17
M  ZZC  26 c18
M  ZZC  27 n4
M  ZZC  28 c19
M  ZZC  29 s1
M  ZZC  30 c20
M  ZZC  31 c21
M  ZZC  32 c22
M  ZZC  33 c23
M  ZZC  34 o5
M  ZZC  35 c24
M  ZZC  36 c25
M  ZZC  37 c26
M  ZZC  38 h11
M  ZZC  39 h31
M  ZZC  40 h51
M  ZZC  41 h52
M  ZZC  42 h53
M  ZZC  43 h61
M  ZZC  44 h62
M  ZZC  45 h63
M  ZZC  46 h71
M  ZZC  47 h72
M  ZZC  48 h73
M  ZZC  49 h91
M  ZZC  50 h01
M  ZZC  51 h111
M  ZZC  52 h112
M  ZZC  53 h41
M  ZZC  54 h141
M  ZZC  55 h181
M  ZZC  56 h182
M  ZZC  57 h183
M  ZZC  58 h191
M  ZZC  59 h201
M  ZZC  60 h211
M  ZZC  61 h221
M  ZZC  62 h222
M  ZZC  63 h231
M  ZZC  64 h02
M  ZZC  65 h241
M  ZZC  66 h242
M  ZZC  67 h251
M  ZZC  68 h252
M  ZZC  69 h261
M  ZZC  70 h262
M  ZZM   1 11
M  ZZI   1 90
M  ZZM   2 22
M  ZZI   2 109
M  ZZM   3 3
M  ZZI   3 121
M  ZZM   4 7
M  ZZI   4 81
M  ZZM   5 10
M  ZZI   5 211
M  ZZM   6 1
M  ZZI   6 113
M  ZZM   7 1
M  ZZI   7 110
M  ZZM   8 1
M  ZZI   8 111
M  ZZM   9 1
M  ZZI   9 111
M  ZZM  10 1
M  ZZI  10 111
M  ZZM  11 3
M  ZZI  11 121
M  ZZM  12 7
M  ZZI  12 81
M  ZZM  13 10
M  ZZI  13 192
M  ZZM  14 1
M  ZZI  14 113
M  ZZM  15 3
M  ZZI  15 121
M  ZZM  16 7
M  ZZI  16 81
M  ZZM  17 10
M  ZZI  17 211
M  ZZM  18 1
M  ZZI  18 112
M  ZZM  19 37
M  ZZI  19 124
M  ZZM  20 37
M  ZZI  20 124
M  ZZM  21 6
M  ZZI  21 62
M  ZZM  22 37
M  ZZI  22 125
M  ZZM  23 37
M  ZZI  23 124
M  ZZM  24 63
M  ZZI  24 104
M  ZZM  25 64
M  ZZI  25 105
M  ZZM  26 1
M  ZZI  26 111
M  ZZM  27 66
M  ZZI  27 222
M  ZZM  28 63
M  ZZI  28 104
M  ZZM  29 44
M  ZZI  29 248
M  ZZM  30 37
M  ZZI  30 125
M  ZZM  31 37
M  ZZI  31 125
M  ZZM  32 1
M  ZZI  32 112
M  ZZM  33 1
M  ZZI  33 113
M  ZZM  34 6
M  ZZI  34 60
M  ZZM  35 1
M  ZZI  35 112
M  ZZM  36 22
M  ZZI  36 109
M  ZZM  37 22
M  ZZI  37 109
M  ZZM  38 28
M  ZZI  38 11
M  ZZM  39 5
M  ZZI  39 1
M  ZZM  40 5
M  ZZI  40 1
M  ZZM  41 5
M  ZZI  41 1
M  ZZM  42 5
M  ZZI  42 1
M  ZZM  43 5
M  ZZI  43 1
M  ZZM  44 5
M  ZZI  44 1
M  ZZM  45 5
M  ZZI  45 1
M  ZZM  46 5
M  ZZI  46 1
M  ZZM  47 5
M  ZZI  47 1
M  ZZM  48 5
M  ZZI  48 1
M  ZZM  49 5
M  ZZI  49 1
M  ZZM  50 28
M  ZZI  50 11
M  ZZM  51 5
M  ZZI  51 1
M  ZZM  52 5
M  ZZI  52 1
M  ZZM  53 29
M  ZZI  53 27
M  ZZM  54 5
M  ZZI  54 1
M  ZZM  55 5
M  ZZI  55 1
M  ZZM  56 5
M  ZZI  56 1
M  ZZM  57 5
M  ZZI  57 1
M  ZZM  58 5
M  ZZI  58 1
M  ZZM  59 5
M  ZZI  59 1
M  ZZM  60 5
M  ZZI  60 1
M  ZZM  61 5
M  ZZI  61 1
M  ZZM  62 5
M  ZZI  62 1
M  ZZM  63 5
M  ZZI  63 1
M  ZZM  64 21
M  ZZI  64 20
M  ZZM  65 5
M  ZZI  65 1
M  ZZM  66 5
M  ZZI  66 1
M  ZZM  67 5
M  ZZI  67 1
M  ZZM  68 5
M  ZZI  68 1
M  ZZM  69 5
M  ZZI  69 1
M  ZZM  70 5
M  ZZI  70 1
M  END
> <IX>
1

> <NAME>
VHL_6HAZ_1.pdb

> <Score>
-23.596926

> <Natom>
70

> <Nflex>
9

> <Hbond>
-8.517448

> <Hphob>
-6.370087

> <VwInt>
-33.289012

> <Dsolv>
19.968172

> <SolEl>
14.88716

> <Eintl>
8.845887

> <RecConf>
ND

> <projPath>
VHL_maps/

> <NAME_>
VHL_6HAZ_1.pdb

$$$$
