VHL_3MXF_11.pdb
  MOLSOFT 04032206363D

 66 68  0  0  1  0  0  0  0  0999 V2000
   13.9532   -1.4676   -1.2835 C   0  0  0  0  0  0  0  0  0  0  0  0
   15.5193   -0.6309   -1.6798 S   0  0  0  0  0  0  0  0  0  0  0  0
   16.6326   -2.0599   -2.0944 C   0  0  0  0  0  0  0  0  0  0  0  0
   16.3050   -2.6068   -3.5202 C   0  0  2  0  0  0  0  0  0  0  0  0
   17.0160   -3.8448   -3.8632 N   0  0  0  0  0  0  0  0  0  0  0  0
   16.4131   -5.0820   -3.7789 C   0  0  0  0  0  0  0  0  0  0  0  0
   15.3139   -5.2723   -3.2815 O   0  0  0  0  0  0  0  0  0  0  0  0
   17.2283   -6.1989   -4.3779 C   0  0  0  0  0  0  0  0  0  0  0  0
   16.6635   -1.6440   -4.6701 C   0  0  0  0  0  0  0  0  0  0  0  0
   17.8340   -1.4091   -4.9474 O   0  0  0  0  0  0  0  0  0  0  0  0
   15.6120   -1.1233   -5.4240 N   0  0  0  0  0  0  0  0  0  0  0  0
   15.8633   -0.3663   -6.6422 C   0  0  2  0  0  0  0  0  0  0  0  0
   16.1940    1.0960   -6.3304 C   0  0  0  0  0  0  0  0  0  0  0  0
   15.5026    1.7931   -5.6001 O   0  0  0  0  0  0  0  0  0  0  0  0
   17.3345    1.5518   -6.9631 N   0  0  0  0  0  0  0  0  0  0  0  0
   17.8149    2.9093   -6.7652 C   0  0  0  0  0  0  0  0  0  0  0  0
   19.2503    3.1300   -7.1815 C   0  0  0  0  0  0  0  0  0  0  0  0
   20.1858    2.1019   -7.1662 C   0  0  0  0  0  0  0  0  0  0  0  0
   21.5021    2.3330   -7.5114 C   0  0  0  0  0  0  0  0  0  0  0  0
   21.9392    3.5995   -7.8668 C   0  0  0  0  0  0  0  0  0  0  0  0
   23.3357    3.8155   -8.2098 C   0  0  0  0  0  0  0  0  0  0  0  0
   24.4123    4.1830   -7.4153 C   0  0  0  0  0  0  0  0  0  0  0  0
   24.3821    4.5013   -5.9701 C   0  0  0  0  0  0  0  0  0  0  0  0
   25.6283    4.2341   -8.0669 N   0  0  0  0  0  0  0  0  0  0  0  0
   25.4631    3.9325   -9.3350 C   0  0  0  0  0  0  0  0  0  0  0  0
   23.8673    3.5798   -9.8260 S   0  0  0  0  0  0  0  0  0  0  0  0
   21.0172    4.6384   -7.8710 C   0  0  0  0  0  0  0  0  0  0  0  0
   19.6920    4.4045   -7.5317 C   0  0  0  0  0  0  0  0  0  0  0  0
   14.5630   -0.4777   -7.4195 C   0  0  0  0  0  0  0  0  0  0  0  0
   13.4927   -0.5946   -6.3449 C   0  0  1  0  0  0  0  0  0  0  0  0
   12.3639   -1.3294   -6.8166 O   0  0  0  0  0  0  0  0  0  0  0  0
   14.1921   -1.3609   -5.2348 C   0  0  0  0  0  0  0  0  0  0  0  0
   16.4826   -3.1571   -1.0251 C   0  0  0  0  0  0  0  0  0  0  0  0
   18.0592   -1.4998   -1.9872 C   0  0  0  0  0  0  0  0  0  0  0  0
   13.6578   -2.1658   -2.0694 H   0  0  0  0  0  0  0  0  0  0  0  0
   13.1662   -0.7158   -1.1857 H   0  0  0  0  0  0  0  0  0  0  0  0
   14.0298   -1.9935   -0.3293 H   0  0  0  0  0  0  0  0  0  0  0  0
   15.2427   -2.8536   -3.5621 H   0  0  0  0  0  0  0  0  0  0  0  0
   17.9576   -3.7782   -4.2415 H   0  0  0  0  0  0  0  0  0  0  0  0
   16.6535   -6.6683   -5.1819 H   0  0  0  0  0  0  0  0  0  0  0  0
   17.4486   -6.9423   -3.6088 H   0  0  0  0  0  0  0  0  0  0  0  0
   18.1721   -5.8359   -4.7952 H   0  0  0  0  0  0  0  0  0  0  0  0
   16.6910   -0.8231   -7.1971 H   0  0  0  0  0  0  0  0  0  0  0  0
   17.8483    0.9244   -7.5757 H   0  0  0  0  0  0  0  0  0  0  0  0
   17.1511    3.5600   -7.3451 H   0  0  0  0  0  0  0  0  0  0  0  0
   17.6995    3.1718   -5.7080 H   0  0  0  0  0  0  0  0  0  0  0  0
   19.8982    1.0944   -6.8875 H   0  0  0  0  0  0  0  0  0  0  0  0
   22.1915    1.4978   -7.5107 H   0  0  0  0  0  0  0  0  0  0  0  0
   23.8096    5.4152   -5.7880 H   0  0  0  0  0  0  0  0  0  0  0  0
   25.3924    4.6511   -5.5782 H   0  0  0  0  0  0  0  0  0  0  0  0
   23.9237    3.6893   -5.4017 H   0  0  0  0  0  0  0  0  0  0  0  0
   26.2850    3.9101  -10.0361 H   0  0  0  0  0  0  0  0  0  0  0  0
   21.3266    5.6435   -8.1422 H   0  0  0  0  0  0  0  0  0  0  0  0
   18.9958    5.2383   -7.5397 H   0  0  0  0  0  0  0  0  0  0  0  0
   14.3802    0.3652   -8.0944 H   0  0  0  0  0  0  0  0  0  0  0  0
   14.5806   -1.3881   -8.0279 H   0  0  0  0  0  0  0  0  0  0  0  0
   13.1607    0.3892   -5.9948 H   0  0  0  0  0  0  0  0  0  0  0  0
   11.9231   -0.8007   -7.5070 H   0  0  0  0  0  0  0  0  0  0  0  0
   13.9927   -2.4359   -5.2885 H   0  0  0  0  0  0  0  0  0  0  0  0
   13.8784   -1.0081   -4.2499 H   0  0  0  0  0  0  0  0  0  0  0  0
   17.2595   -3.9202   -1.1291 H   0  0  0  0  0  0  0  0  0  0  0  0
   15.5207   -3.6745   -1.0891 H   0  0  0  0  0  0  0  0  0  0  0  0
   16.5784   -2.7552   -0.0109 H   0  0  0  0  0  0  0  0  0  0  0  0
   18.7941   -2.2358   -2.3173 H   0  0  0  0  0  0  0  0  0  0  0  0
   18.3170   -1.2388   -0.9552 H   0  0  0  0  0  0  0  0  0  0  0  0
   18.2082   -0.5980   -2.5891 H   0  0  0  0  0  0  0  0  0  0  0  0
  1 35  1  0  0  0  0
  1 36  1  0  0  0  0
  1 37  1  0  0  0  0
  1  2  1  0  0  0  0
  2  3  1  0  0  0  0
  3 33  1  0  0  0  0
  3 34  1  0  0  0  0
  4  3  1  0  0  0  0
  4 38  1  0  0  0  0
  4  5  1  0  0  0  0
  4  9  1  0  0  0  0
  5 39  1  0  0  0  0
  5  6  1  0  0  0  0
  6  7  2  0  0  0  0
  6  8  1  0  0  0  0
  8 40  1  0  0  0  0
  8 41  1  0  0  0  0
  8 42  1  0  0  0  0
  9 10  2  0  0  0  0
  9 11  1  0  0  0  0
 11 32  1  0  0  0  0
 12 11  1  0  0  0  0
 12 29  1  0  0  0  0
 12 43  1  0  0  0  0
 12 13  1  0  0  0  0
 13 14  2  0  0  0  0
 13 15  1  0  0  0  0
 15 44  1  0  0  0  0
 15 16  1  0  0  0  0
 16 45  1  0  0  0  0
 16 46  1  0  0  0  0
 16 17  1  0  0  0  0
 17 18  1  0  0  0  0
 17 28  2  0  0  0  0
 18 47  1  0  0  0  0
 18 19  2  0  0  0  0
 19 48  1  0  0  0  0
 19 20  1  0  0  0  0
 20 27  2  0  0  0  0
 20 21  1  0  0  0  0
 21 22  2  0  0  0  0
 21 26  1  0  0  0  0
 22 23  1  0  0  0  0
 22 24  1  0  0  0  0
 23 49  1  0  0  0  0
 23 50  1  0  0  0  0
 23 51  1  0  0  0  0
 24 25  2  0  0  0  0
 25 52  1  0  0  0  0
 25 26  1  0  0  0  0
 27 53  1  0  0  0  0
 27 28  1  0  0  0  0
 28 54  1  0  0  0  0
 30 29  1  0  0  0  0
 29 55  1  0  0  0  0
 29 56  1  0  0  0  0
 30 32  1  0  0  0  0
 30 57  1  0  0  0  0
 30 31  1  0  0  0  0
 31 58  1  0  0  0  0
 32 59  1  0  0  0  0
 32 60  1  0  0  0  0
 33 61  1  0  0  0  0
 33 62  1  0  0  0  0
 33 63  1  0  0  0  0
 34 64  1  0  0  0  0
 34 65  1  0  0  0  0
 34 66  1  0  0  0  0
M  ZZC   1 c1
M  ZZC   2 s1
M  ZZC   3 c2
M  ZZC   4 c3
M  ZZC   5 n1
M  ZZC   6 c4
M  ZZC   7 o1
M  ZZC   8 c5
M  ZZC   9 c6
M  ZZC  10 o2
M  ZZC  11 n2
M  ZZC  12 c7
M  ZZC  13 c8
M  ZZC  14 o3
M  ZZC  15 n3
M  ZZC  16 c9
M  ZZC  17 c10
M  ZZC  18 c11
M  ZZC  19 c12
M  ZZC  20 c13
M  ZZC  21 c14
M  ZZC  22 c15
M  ZZC  23 c16
M  ZZC  24 n4
M  ZZC  25 c17
M  ZZC  26 s2
M  ZZC  27 c18
M  ZZC  28 c19
M  ZZC  29 c20
M  ZZC  30 c21
M  ZZC  31 o4
M  ZZC  32 c22
M  ZZC  33 c23
M  ZZC  34 c24
M  ZZC  35 h11
M  ZZC  36 h12
M  ZZC  37 h13
M  ZZC  38 h31
M  ZZC  39 h01
M  ZZC  40 h51
M  ZZC  41 h52
M  ZZC  42 h53
M  ZZC  43 h71
M  ZZC  44 h02
M  ZZC  45 h91
M  ZZC  46 h92
M  ZZC  47 h111
M  ZZC  48 h121
M  ZZC  49 h161
M  ZZC  50 h162
M  ZZC  51 h163
M  ZZC  52 h171
M  ZZC  53 h181
M  ZZC  54 h191
M  ZZC  55 h201
M  ZZC  56 h202
M  ZZC  57 h211
M  ZZC  58 h41
M  ZZC  59 h221
M  ZZC  60 h222
M  ZZC  61 h231
M  ZZC  62 h232
M  ZZC  63 h233
M  ZZC  64 h241
M  ZZC  65 h242
M  ZZC  66 h243
M  ZZM   1 1
M  ZZI   1 111
M  ZZM   2 15
M  ZZI   2 253
M  ZZM   3 1
M  ZZI   3 110
M  ZZM   4 1
M  ZZI   4 113
M  ZZM   5 10
M  ZZI   5 211
M  ZZM   6 3
M  ZZI   6 121
M  ZZM   7 7
M  ZZI   7 81
M  ZZM   8 1
M  ZZI   8 111
M  ZZM   9 3
M  ZZI   9 121
M  ZZM  10 7
M  ZZI  10 81
M  ZZM  11 10
M  ZZI  11 192
M  ZZM  12 1
M  ZZI  12 113
M  ZZM  13 3
M  ZZI  13 121
M  ZZM  14 7
M  ZZI  14 81
M  ZZM  15 10
M  ZZI  15 211
M  ZZM  16 1
M  ZZI  16 112
M  ZZM  17 37
M  ZZI  17 124
M  ZZM  18 37
M  ZZI  18 125
M  ZZM  19 37
M  ZZI  19 125
M  ZZM  20 37
M  ZZI  20 124
M  ZZM  21 63
M  ZZI  21 104
M  ZZM  22 64
M  ZZI  22 105
M  ZZM  23 1
M  ZZI  23 111
M  ZZM  24 66
M  ZZI  24 222
M  ZZM  25 63
M  ZZI  25 104
M  ZZM  26 44
M  ZZI  26 248
M  ZZM  27 37
M  ZZI  27 125
M  ZZM  28 37
M  ZZI  28 125
M  ZZM  29 1
M  ZZI  29 112
M  ZZM  30 1
M  ZZI  30 113
M  ZZM  31 6
M  ZZI  31 60
M  ZZM  32 1
M  ZZI  32 112
M  ZZM  33 1
M  ZZI  33 111
M  ZZM  34 1
M  ZZI  34 111
M  ZZM  35 5
M  ZZI  35 1
M  ZZM  36 5
M  ZZI  36 1
M  ZZM  37 5
M  ZZI  37 1
M  ZZM  38 5
M  ZZI  38 1
M  ZZM  39 28
M  ZZI  39 11
M  ZZM  40 5
M  ZZI  40 1
M  ZZM  41 5
M  ZZI  41 1
M  ZZM  42 5
M  ZZI  42 1
M  ZZM  43 5
M  ZZI  43 1
M  ZZM  44 28
M  ZZI  44 11
M  ZZM  45 5
M  ZZI  45 1
M  ZZM  46 5
M  ZZI  46 1
M  ZZM  47 5
M  ZZI  47 1
M  ZZM  48 5
M  ZZI  48 1
M  ZZM  49 5
M  ZZI  49 1
M  ZZM  50 5
M  ZZI  50 1
M  ZZM  51 5
M  ZZI  51 1
M  ZZM  52 5
M  ZZI  52 1
M  ZZM  53 5
M  ZZI  53 1
M  ZZM  54 5
M  ZZI  54 1
M  ZZM  55 5
M  ZZI  55 1
M  ZZM  56 5
M  ZZI  56 1
M  ZZM  57 5
M  ZZI  57 1
M  ZZM  58 21
M  ZZI  58 20
M  ZZM  59 5
M  ZZI  59 1
M  ZZM  60 5
M  ZZI  60 1
M  ZZM  61 5
M  ZZI  61 1
M  ZZM  62 5
M  ZZI  62 1
M  ZZM  63 5
M  ZZI  63 1
M  ZZM  64 5
M  ZZI  64 1
M  ZZM  65 5
M  ZZI  65 1
M  ZZM  66 5
M  ZZI  66 1
M  END
> <IX>
1

> <NAME>
VHL_3MXF_11.pdb

> <Score>
-18.079582

> <Natom>
66

> <Nflex>
9

> <Hbond>
-4.880037

> <Hphob>
-6.301027

> <VwInt>
-33.78549

> <Dsolv>
17.619576

> <SolEl>
17.6549

> <Eintl>
3.345289

> <RecConf>
ND

> <projPath>
VHL_maps/

> <NAME_>
VHL_3MXF_11.pdb

$$$$
