VHL_5EU1_13.pdb
  MOLSOFT 04032206423D

 71 74  0  0  1  0  0  0  0  0999 V2000
   13.4972    1.9158   -5.4713 O   0  0  0  0  0  0  0  0  0  0  0  0
   14.0594    2.9532   -5.7940 C   0  0  0  0  0  0  0  0  0  0  0  0
   14.7501    3.8558   -4.7551 C   0  0  1  0  0  0  0  0  0  0  0  0
   13.8806    5.0173   -4.5804 N   0  0  0  0  0  0  0  0  0  0  0  0
   14.3664    6.2986   -4.4298 C   0  0  0  0  0  0  0  0  0  0  0  0
   15.5461    6.6178   -4.4386 O   0  0  0  0  0  0  0  0  0  0  0  0
   13.3073    7.3086   -4.2348 C   0  0  0  0  0  0  0  0  0  0  0  0
   12.6244    7.2075   -2.9822 C   0  0  0  0  0  0  0  0  0  0  0  0
   12.0622    7.0463   -1.9806 N   0  0  0  0  0  0  0  0  0  0  0  0
   13.4818    8.6821   -4.8474 C   0  0  0  0  0  0  0  0  0  0  0  0
   12.4864    7.7320   -5.4345 C   0  0  0  0  0  0  0  0  0  0  0  0
   15.0719    3.1602   -3.3889 C   0  0  0  0  0  0  0  0  0  0  0  0
   13.8085    2.7712   -2.5935 C   0  0  0  0  0  0  0  0  0  0  0  0
   15.8962    4.1038   -2.4957 C   0  0  0  0  0  0  0  0  0  0  0  0
   15.9281    1.9039   -3.6202 C   0  0  0  0  0  0  0  0  0  0  0  0
   14.0813    3.3560   -7.1333 N   0  0  0  0  0  0  0  0  0  0  0  0
   13.5540    2.4735   -8.1615 C   0  0  2  0  0  0  0  0  0  0  0  0
   14.6399    1.4251   -8.3979 C   0  0  0  0  0  0  0  0  0  0  0  0
   15.6961    1.6935   -8.9514 O   0  0  0  0  0  0  0  0  0  0  0  0
   14.3483    0.1979   -7.8516 N   0  0  0  0  0  0  0  0  0  0  0  0
   15.3051   -0.8823   -7.7652 C   0  0  0  0  0  0  0  0  0  0  0  0
   15.3778   -1.3851   -6.3545 C   0  0  0  0  0  0  0  0  0  0  0  0
   14.2324   -1.8103   -5.6906 C   0  0  0  0  0  0  0  0  0  0  0  0
   13.0263   -1.8217   -6.3697 O   0  0  0  0  0  0  0  0  0  0  0  0
   14.2697   -2.2192   -4.3724 C   0  0  0  0  0  0  0  0  0  0  0  0
   15.4754   -2.2084   -3.6904 C   0  0  0  0  0  0  0  0  0  0  0  0
   15.5139   -2.6431   -2.3129 C   0  0  0  0  0  0  0  0  0  0  0  0
   15.4853   -3.9241   -1.7931 C   0  0  0  0  0  0  0  0  0  0  0  0
   15.4248   -5.1912   -2.5587 C   0  0  0  0  0  0  0  0  0  0  0  0
   15.5160   -3.9813   -0.4166 N   0  0  0  0  0  0  0  0  0  0  0  0
   15.5559   -2.7671    0.0840 C   0  0  0  0  0  0  0  0  0  0  0  0
   15.5663   -1.4872   -1.0443 S   0  0  0  0  0  0  0  0  0  0  0  0
   16.6343   -1.8119   -4.3465 C   0  0  0  0  0  0  0  0  0  0  0  0
   16.5854   -1.4019   -5.6671 C   0  0  0  0  0  0  0  0  0  0  0  0
   13.3484    3.3401   -9.3986 C   0  0  0  0  0  0  0  0  0  0  0  0
   13.7072    4.7555   -8.9733 C   0  0  1  0  0  0  0  0  0  0  0  0
   12.4965    5.4659   -8.6963 O   0  0  0  0  0  0  0  0  0  0  0  0
   14.5605    4.5916   -7.7201 C   0  0  0  0  0  0  0  0  0  0  0  0
   15.6905    4.1986   -5.2023 H   0  0  0  0  0  0  0  0  0  0  0  0
   12.8757    4.8760   -4.6164 H   0  0  0  0  0  0  0  0  0  0  0  0
   13.1173    9.5393   -4.2989 H   0  0  0  0  0  0  0  0  0  0  0  0
   14.3748    8.8904   -5.4251 H   0  0  0  0  0  0  0  0  0  0  0  0
   12.7149    7.3091   -6.4053 H   0  0  0  0  0  0  0  0  0  0  0  0
   11.4329    7.9313   -5.2873 H   0  0  0  0  0  0  0  0  0  0  0  0
   14.0709    2.3414   -1.6214 H   0  0  0  0  0  0  0  0  0  0  0  0
   13.2001    2.0228   -3.1056 H   0  0  0  0  0  0  0  0  0  0  0  0
   13.1676    3.6356   -2.3939 H   0  0  0  0  0  0  0  0  0  0  0  0
   16.2288    3.6011   -1.5815 H   0  0  0  0  0  0  0  0  0  0  0  0
   15.3191    4.9766   -2.1765 H   0  0  0  0  0  0  0  0  0  0  0  0
   16.7935    4.4622   -3.0104 H   0  0  0  0  0  0  0  0  0  0  0  0
   15.3754    1.1154   -4.1348 H   0  0  0  0  0  0  0  0  0  0  0  0
   16.2736    1.4756   -2.6739 H   0  0  0  0  0  0  0  0  0  0  0  0
   16.8174    2.1301   -4.2176 H   0  0  0  0  0  0  0  0  0  0  0  0
   12.6258    2.0037   -7.8226 H   0  0  0  0  0  0  0  0  0  0  0  0
   13.4450    0.0460   -7.4118 H   0  0  0  0  0  0  0  0  0  0  0  0
   14.9696   -1.6895   -8.4191 H   0  0  0  0  0  0  0  0  0  0  0  0
   16.2845   -0.5472   -8.1227 H   0  0  0  0  0  0  0  0  0  0  0  0
   12.3226   -1.6828   -5.7121 H   0  0  0  0  0  0  0  0  0  0  0  0
   13.3679   -2.5618   -3.8765 H   0  0  0  0  0  0  0  0  0  0  0  0
   14.7124   -5.8794   -2.1018 H   0  0  0  0  0  0  0  0  0  0  0  0
   16.4052   -5.6720   -2.5836 H   0  0  0  0  0  0  0  0  0  0  0  0
   15.1077   -5.0350   -3.5927 H   0  0  0  0  0  0  0  0  0  0  0  0
   15.5798   -2.5827    1.1485 H   0  0  0  0  0  0  0  0  0  0  0  0
   17.5884   -1.8155   -3.8276 H   0  0  0  0  0  0  0  0  0  0  0  0
   17.4996   -1.0790   -6.1563 H   0  0  0  0  0  0  0  0  0  0  0  0
   13.9810    3.0169  -10.2263 H   0  0  0  0  0  0  0  0  0  0  0  0
   12.3139    3.2665   -9.7444 H   0  0  0  0  0  0  0  0  0  0  0  0
   14.2347    5.3095   -9.7555 H   0  0  0  0  0  0  0  0  0  0  0  0
   12.2240    5.2333   -7.7917 H   0  0  0  0  0  0  0  0  0  0  0  0
   14.4731    5.4334   -7.0332 H   0  0  0  0  0  0  0  0  0  0  0  0
   15.6152    4.4418   -7.9745 H   0  0  0  0  0  0  0  0  0  0  0  0
  1  2  2  0  0  0  0
  3  2  1  0  0  0  0
  2 16  1  0  0  0  0
  3  4  1  0  0  0  0
  3 39  1  0  0  0  0
  3 12  1  0  0  0  0
  4  5  1  0  0  0  0
  4 40  1  0  0  0  0
  5  7  1  0  0  0  0
  5  6  2  0  0  0  0
  7  8  1  0  0  0  0
  7 10  1  0  0  0  0
  7 11  1  0  0  0  0
  8  9  3  0  0  0  0
 10 41  1  0  0  0  0
 10 42  1  0  0  0  0
 10 11  1  0  0  0  0
 11 43  1  0  0  0  0
 11 44  1  0  0  0  0
 12 14  1  0  0  0  0
 12 15  1  0  0  0  0
 12 13  1  0  0  0  0
 13 45  1  0  0  0  0
 13 46  1  0  0  0  0
 13 47  1  0  0  0  0
 14 48  1  0  0  0  0
 14 49  1  0  0  0  0
 14 50  1  0  0  0  0
 15 51  1  0  0  0  0
 15 52  1  0  0  0  0
 15 53  1  0  0  0  0
 17 16  1  0  0  0  0
 16 38  1  0  0  0  0
 17 54  1  0  0  0  0
 17 35  1  0  0  0  0
 17 18  1  0  0  0  0
 18 19  2  0  0  0  0
 18 20  1  0  0  0  0
 20 55  1  0  0  0  0
 20 21  1  0  0  0  0
 21 56  1  0  0  0  0
 21 57  1  0  0  0  0
 21 22  1  0  0  0  0
 22 23  2  0  0  0  0
 22 34  1  0  0  0  0
 23 24  1  0  0  0  0
 23 25  1  0  0  0  0
 24 58  1  0  0  0  0
 25 59  1  0  0  0  0
 25 26  2  0  0  0  0
 26 33  1  0  0  0  0
 26 27  1  0  0  0  0
 27 28  2  0  0  0  0
 27 32  1  0  0  0  0
 28 29  1  0  0  0  0
 28 30  1  0  0  0  0
 29 60  1  0  0  0  0
 29 61  1  0  0  0  0
 29 62  1  0  0  0  0
 30 31  2  0  0  0  0
 31 63  1  0  0  0  0
 31 32  1  0  0  0  0
 33 64  1  0  0  0  0
 33 34  2  0  0  0  0
 34 65  1  0  0  0  0
 35 66  1  0  0  0  0
 35 67  1  0  0  0  0
 36 35  1  0  0  0  0
 36 68  1  0  0  0  0
 36 38  1  0  0  0  0
 36 37  1  0  0  0  0
 37 69  1  0  0  0  0
 38 70  1  0  0  0  0
 38 71  1  0  0  0  0
M  ZZC   1 o1
M  ZZC   2 c1
M  ZZC   3 c2
M  ZZC   4 n1
M  ZZC   5 c3
M  ZZC   6 o2
M  ZZC   7 c4
M  ZZC   8 c5
M  ZZC   9 n2
M  ZZC  10 c6
M  ZZC  11 c7
M  ZZC  12 c8
M  ZZC  13 c9
M  ZZC  14 c10
M  ZZC  15 c11
M  ZZC  16 n3
M  ZZC  17 c12
M  ZZC  18 c13
M  ZZC  19 o3
M  ZZC  20 n4
M  ZZC  21 c14
M  ZZC  22 c15
M  ZZC  23 c16
M  ZZC  24 o4
M  ZZC  25 c17
M  ZZC  26 c18
M  ZZC  27 c19
M  ZZC  28 c20
M  ZZC  29 c21
M  ZZC  30 n5
M  ZZC  31 c22
M  ZZC  32 s1
M  ZZC  33 c23
M  ZZC  34 c24
M  ZZC  35 c25
M  ZZC  36 c26
M  ZZC  37 o5
M  ZZC  38 c27
M  ZZC  39 h21
M  ZZC  40 h11
M  ZZC  41 h61
M  ZZC  42 h62
M  ZZC  43 h71
M  ZZC  44 h72
M  ZZC  45 h91
M  ZZC  46 h92
M  ZZC  47 h93
M  ZZC  48 h101
M  ZZC  49 h102
M  ZZC  50 h103
M  ZZC  51 h111
M  ZZC  52 h112
M  ZZC  53 h113
M  ZZC  54 h121
M  ZZC  55 h41
M  ZZC  56 h141
M  ZZC  57 h142
M  ZZC  58 h01
M  ZZC  59 h171
M  ZZC  60 h211
M  ZZC  61 h212
M  ZZC  62 h213
M  ZZC  63 h221
M  ZZC  64 h231
M  ZZC  65 h241
M  ZZC  66 h251
M  ZZC  67 h252
M  ZZC  68 h261
M  ZZC  69 h51
M  ZZC  70 h271
M  ZZC  71 h272
M  ZZM   1 7
M  ZZI   1 81
M  ZZM   2 3
M  ZZI   2 121
M  ZZM   3 1
M  ZZI   3 113
M  ZZM   4 10
M  ZZI   4 211
M  ZZM   5 3
M  ZZI   5 121
M  ZZM   6 7
M  ZZI   6 81
M  ZZM   7 22
M  ZZI   7 109
M  ZZM   8 4
M  ZZI   8 130
M  ZZM   9 42
M  ZZI   9 225
M  ZZM  10 22
M  ZZI  10 109
M  ZZM  11 22
M  ZZI  11 109
M  ZZM  12 1
M  ZZI  12 110
M  ZZM  13 1
M  ZZI  13 111
M  ZZM  14 1
M  ZZI  14 111
M  ZZM  15 1
M  ZZI  15 111
M  ZZM  16 10
M  ZZI  16 192
M  ZZM  17 1
M  ZZI  17 113
M  ZZM  18 3
M  ZZI  18 121
M  ZZM  19 7
M  ZZI  19 81
M  ZZM  20 10
M  ZZI  20 211
M  ZZM  21 1
M  ZZI  21 112
M  ZZM  22 37
M  ZZI  22 124
M  ZZM  23 37
M  ZZI  23 124
M  ZZM  24 6
M  ZZI  24 62
M  ZZM  25 37
M  ZZI  25 125
M  ZZM  26 37
M  ZZI  26 124
M  ZZM  27 63
M  ZZI  27 104
M  ZZM  28 64
M  ZZI  28 105
M  ZZM  29 1
M  ZZI  29 111
M  ZZM  30 66
M  ZZI  30 222
M  ZZM  31 63
M  ZZI  31 104
M  ZZM  32 44
M  ZZI  32 248
M  ZZM  33 37
M  ZZI  33 125
M  ZZM  34 37
M  ZZI  34 125
M  ZZM  35 1
M  ZZI  35 112
M  ZZM  36 1
M  ZZI  36 113
M  ZZM  37 6
M  ZZI  37 60
M  ZZM  38 1
M  ZZI  38 112
M  ZZM  39 5
M  ZZI  39 1
M  ZZM  40 28
M  ZZI  40 11
M  ZZM  41 5
M  ZZI  41 1
M  ZZM  42 5
M  ZZI  42 1
M  ZZM  43 5
M  ZZI  43 1
M  ZZM  44 5
M  ZZI  44 1
M  ZZM  45 5
M  ZZI  45 1
M  ZZM  46 5
M  ZZI  46 1
M  ZZM  47 5
M  ZZI  47 1
M  ZZM  48 5
M  ZZI  48 1
M  ZZM  49 5
M  ZZI  49 1
M  ZZM  50 5
M  ZZI  50 1
M  ZZM  51 5
M  ZZI  51 1
M  ZZM  52 5
M  ZZI  52 1
M  ZZM  53 5
M  ZZI  53 1
M  ZZM  54 5
M  ZZI  54 1
M  ZZM  55 28
M  ZZI  55 11
M  ZZM  56 5
M  ZZI  56 1
M  ZZM  57 5
M  ZZI  57 1
M  ZZM  58 29
M  ZZI  58 27
M  ZZM  59 5
M  ZZI  59 1
M  ZZM  60 5
M  ZZI  60 1
M  ZZM  61 5
M  ZZI  61 1
M  ZZM  62 5
M  ZZI  62 1
M  ZZM  63 5
M  ZZI  63 1
M  ZZM  64 5
M  ZZI  64 1
M  ZZM  65 5
M  ZZI  65 1
M  ZZM  66 5
M  ZZI  66 1
M  ZZM  67 5
M  ZZI  67 1
M  ZZM  68 5
M  ZZI  68 1
M  ZZM  69 21
M  ZZI  69 20
M  ZZM  70 5
M  ZZI  70 1
M  ZZM  71 5
M  ZZI  71 1
M  END
> <IX>
1

> <NAME>
VHL_5EU1_13.pdb

> <Score>
-18.833252

> <Natom>
71

> <Nflex>
10

> <Hbond>
-8.7507

> <Hphob>
-6.568735

> <VwInt>
-28.278768

> <Dsolv>
23.432998

> <SolEl>
8.211893

> <Eintl>
11.652067

> <RecConf>
ND

> <projPath>
VHL_maps/

> <NAME_>
VHL_5EU1_13.pdb

$$$$
