VHL_5WUK_2.pdb
  MOLSOFT 04032206423D

 65 67  0  0  1  0  0  0  0  0999 V2000
   16.5183   -5.8829   -5.5929 O   0  0  0  0  0  0  0  0  0  0  0  0
   17.5360   -5.2577   -5.3390 C   0  0  0  0  0  0  0  0  0  0  0  0
   17.5741   -4.0358   -4.6850 N   0  0  0  0  0  0  0  0  0  0  0  0
   16.3781   -3.2749   -4.3068 C   0  0  1  0  0  0  0  0  0  0  0  0
   15.8265   -3.6025   -2.8797 C   0  0  0  0  0  0  0  0  0  0  0  0
   16.8068   -3.2567   -1.7453 C   0  0  0  0  0  0  0  0  0  0  0  0
   14.5279   -2.8146   -2.6540 C   0  0  0  0  0  0  0  0  0  0  0  0
   15.4798   -5.0919   -2.7515 C   0  0  0  0  0  0  0  0  0  0  0  0
   16.7179   -1.7779   -4.4753 C   0  0  0  0  0  0  0  0  0  0  0  0
   17.4466   -1.1924   -3.6862 O   0  0  0  0  0  0  0  0  0  0  0  0
   16.2026   -1.1198   -5.5919 N   0  0  0  0  0  0  0  0  0  0  0  0
   16.2628    0.3275   -5.7230 C   0  0  2  0  0  0  0  0  0  0  0  0
   15.0082    0.9423   -5.0870 C   0  0  0  0  0  0  0  0  0  0  0  0
   13.8752    0.5973   -5.3972 O   0  0  0  0  0  0  0  0  0  0  0  0
   15.2764    1.9070   -4.1319 N   0  0  0  0  0  0  0  0  0  0  0  0
   14.2239    2.5799   -3.3938 C   0  0  0  0  0  0  0  0  0  0  0  0
   14.0346    1.9765   -2.0264 C   0  0  0  0  0  0  0  0  0  0  0  0
   14.5340    2.6025   -0.8910 C   0  0  0  0  0  0  0  0  0  0  0  0
   14.4054    2.0145    0.3561 C   0  0  0  0  0  0  0  0  0  0  0  0
   13.7746    0.7834    0.5093 C   0  0  0  0  0  0  0  0  0  0  0  0
   13.6815    0.1540    1.8233 C   0  0  0  0  0  0  0  0  0  0  0  0
   13.2954    0.6687    3.0568 C   0  0  0  0  0  0  0  0  0  0  0  0
   12.8070    2.0384    3.3464 C   0  0  0  0  0  0  0  0  0  0  0  0
   13.3669   -0.2211    4.1121 N   0  0  0  0  0  0  0  0  0  0  0  0
   13.7746   -1.3917    3.6784 C   0  0  0  0  0  0  0  0  0  0  0  0
   14.1239   -1.5003    2.0123 S   0  0  0  0  0  0  0  0  0  0  0  0
   13.2567    0.1679   -0.6267 C   0  0  0  0  0  0  0  0  0  0  0  0
   13.3904    0.7553   -1.8733 C   0  0  0  0  0  0  0  0  0  0  0  0
   16.2837    0.5737   -7.2210 C   0  0  0  0  0  0  0  0  0  0  0  0
   15.5884   -0.6375   -7.8362 C   0  0  1  0  0  0  0  0  0  0  0  0
   16.2829   -1.0599   -9.0153 O   0  0  0  0  0  0  0  0  0  0  0  0
   15.6102   -1.7263   -6.7651 C   0  0  0  0  0  0  0  0  0  0  0  0
   18.8876   -5.7980   -5.7299 C   0  0  0  0  0  0  0  0  0  0  0  0
   18.4772   -3.6281   -4.4727 H   0  0  0  0  0  0  0  0  0  0  0  0
   15.5997   -3.5373   -5.0207 H   0  0  0  0  0  0  0  0  0  0  0  0
   17.8090   -3.6372   -1.9480 H   0  0  0  0  0  0  0  0  0  0  0  0
   16.4807   -3.6873   -0.7929 H   0  0  0  0  0  0  0  0  0  0  0  0
   16.8895   -2.1797   -1.5791 H   0  0  0  0  0  0  0  0  0  0  0  0
   13.7676   -3.0727   -3.3985 H   0  0  0  0  0  0  0  0  0  0  0  0
   14.6937   -1.7369   -2.7170 H   0  0  0  0  0  0  0  0  0  0  0  0
   14.1049   -3.0154   -1.6649 H   0  0  0  0  0  0  0  0  0  0  0  0
   14.7955   -5.4062   -3.5412 H   0  0  0  0  0  0  0  0  0  0  0  0
   14.9856   -5.3077   -1.7994 H   0  0  0  0  0  0  0  0  0  0  0  0
   16.3687   -5.7263   -2.8001 H   0  0  0  0  0  0  0  0  0  0  0  0
   17.1635    0.7226   -5.2393 H   0  0  0  0  0  0  0  0  0  0  0  0
   16.2357    2.1128   -3.8747 H   0  0  0  0  0  0  0  0  0  0  0  0
   14.5053    3.6349   -3.3151 H   0  0  0  0  0  0  0  0  0  0  0  0
   13.2850    2.5412   -3.9545 H   0  0  0  0  0  0  0  0  0  0  0  0
   15.0479    3.5558   -0.9714 H   0  0  0  0  0  0  0  0  0  0  0  0
   14.8325    2.5238    1.2143 H   0  0  0  0  0  0  0  0  0  0  0  0
   13.6456    2.7309    3.4603 H   0  0  0  0  0  0  0  0  0  0  0  0
   12.2256    2.0581    4.2729 H   0  0  0  0  0  0  0  0  0  0  0  0
   12.1583    2.4069    2.5465 H   0  0  0  0  0  0  0  0  0  0  0  0
   13.8890   -2.2427    4.3341 H   0  0  0  0  0  0  0  0  0  0  0  0
   12.7456   -0.7879   -0.5560 H   0  0  0  0  0  0  0  0  0  0  0  0
   13.0050    0.2365   -2.7458 H   0  0  0  0  0  0  0  0  0  0  0  0
   15.7887    1.5080   -7.5066 H   0  0  0  0  0  0  0  0  0  0  0  0
   17.3190    0.6496   -7.5696 H   0  0  0  0  0  0  0  0  0  0  0  0
   14.5585   -0.3980   -8.1135 H   0  0  0  0  0  0  0  0  0  0  0  0
   17.2370   -0.9997   -8.8200 H   0  0  0  0  0  0  0  0  0  0  0  0
   16.1717   -2.6178   -7.0565 H   0  0  0  0  0  0  0  0  0  0  0  0
   14.5921   -2.0254   -6.5011 H   0  0  0  0  0  0  0  0  0  0  0  0
   18.8452   -6.1937   -6.7475 H   0  0  0  0  0  0  0  0  0  0  0  0
   19.1655   -6.6063   -5.0504 H   0  0  0  0  0  0  0  0  0  0  0  0
   19.6535   -5.0203   -5.7081 H   0  0  0  0  0  0  0  0  0  0  0  0
  1  2  2  0  0  0  0
  2  3  1  0  0  0  0
  2 33  1  0  0  0  0
  4  3  1  0  0  0  0
  3 34  1  0  0  0  0
  4  5  1  0  0  0  0
  4 35  1  0  0  0  0
  4  9  1  0  0  0  0
  5  6  1  0  0  0  0
  5  7  1  0  0  0  0
  5  8  1  0  0  0  0
  6 36  1  0  0  0  0
  6 37  1  0  0  0  0
  6 38  1  0  0  0  0
  7 39  1  0  0  0  0
  7 40  1  0  0  0  0
  7 41  1  0  0  0  0
  8 42  1  0  0  0  0
  8 43  1  0  0  0  0
  8 44  1  0  0  0  0
  9 10  2  0  0  0  0
  9 11  1  0  0  0  0
 11 32  1  0  0  0  0
 12 11  1  0  0  0  0
 12 29  1  0  0  0  0
 12 45  1  0  0  0  0
 12 13  1  0  0  0  0
 13 14  2  0  0  0  0
 13 15  1  0  0  0  0
 15 46  1  0  0  0  0
 15 16  1  0  0  0  0
 16 47  1  0  0  0  0
 16 48  1  0  0  0  0
 16 17  1  0  0  0  0
 17 18  1  0  0  0  0
 17 28  2  0  0  0  0
 18 49  1  0  0  0  0
 18 19  2  0  0  0  0
 19 50  1  0  0  0  0
 19 20  1  0  0  0  0
 20 27  2  0  0  0  0
 20 21  1  0  0  0  0
 21 22  2  0  0  0  0
 21 26  1  0  0  0  0
 22 23  1  0  0  0  0
 22 24  1  0  0  0  0
 23 51  1  0  0  0  0
 23 52  1  0  0  0  0
 23 53  1  0  0  0  0
 24 25  2  0  0  0  0
 25 54  1  0  0  0  0
 25 26  1  0  0  0  0
 27 55  1  0  0  0  0
 27 28  1  0  0  0  0
 28 56  1  0  0  0  0
 30 29  1  0  0  0  0
 29 57  1  0  0  0  0
 29 58  1  0  0  0  0
 30 32  1  0  0  0  0
 30 59  1  0  0  0  0
 30 31  1  0  0  0  0
 31 60  1  0  0  0  0
 32 61  1  0  0  0  0
 32 62  1  0  0  0  0
 33 63  1  0  0  0  0
 33 64  1  0  0  0  0
 33 65  1  0  0  0  0
M  ZZC   1 o1
M  ZZC   2 c1
M  ZZC   3 n1
M  ZZC   4 c2
M  ZZC   5 c3
M  ZZC   6 c4
M  ZZC   7 c5
M  ZZC   8 c6
M  ZZC   9 c7
M  ZZC  10 o2
M  ZZC  11 n2
M  ZZC  12 c8
M  ZZC  13 c9
M  ZZC  14 o3
M  ZZC  15 n3
M  ZZC  16 c10
M  ZZC  17 c11
M  ZZC  18 c12
M  ZZC  19 c13
M  ZZC  20 c14
M  ZZC  21 c15
M  ZZC  22 c16
M  ZZC  23 c17
M  ZZC  24 n4
M  ZZC  25 c18
M  ZZC  26 s1
M  ZZC  27 c19
M  ZZC  28 c20
M  ZZC  29 c21
M  ZZC  30 c22
M  ZZC  31 o4
M  ZZC  32 c23
M  ZZC  33 c24
M  ZZC  34 h11
M  ZZC  35 h21
M  ZZC  36 h41
M  ZZC  37 h42
M  ZZC  38 h43
M  ZZC  39 h51
M  ZZC  40 h52
M  ZZC  41 h53
M  ZZC  42 h61
M  ZZC  43 h62
M  ZZC  44 h63
M  ZZC  45 h81
M  ZZC  46 h31
M  ZZC  47 h101
M  ZZC  48 h102
M  ZZC  49 h121
M  ZZC  50 h131
M  ZZC  51 h171
M  ZZC  52 h172
M  ZZC  53 h173
M  ZZC  54 h181
M  ZZC  55 h191
M  ZZC  56 h201
M  ZZC  57 h211
M  ZZC  58 h212
M  ZZC  59 h221
M  ZZC  60 h01
M  ZZC  61 h231
M  ZZC  62 h232
M  ZZC  63 h241
M  ZZC  64 h242
M  ZZC  65 h243
M  ZZM   1 7
M  ZZI   1 81
M  ZZM   2 3
M  ZZI   2 121
M  ZZM   3 10
M  ZZI   3 211
M  ZZM   4 1
M  ZZI   4 113
M  ZZM   5 1
M  ZZI   5 110
M  ZZM   6 1
M  ZZI   6 111
M  ZZM   7 1
M  ZZI   7 111
M  ZZM   8 1
M  ZZI   8 111
M  ZZM   9 3
M  ZZI   9 121
M  ZZM  10 7
M  ZZI  10 81
M  ZZM  11 10
M  ZZI  11 192
M  ZZM  12 1
M  ZZI  12 113
M  ZZM  13 3
M  ZZI  13 121
M  ZZM  14 7
M  ZZI  14 81
M  ZZM  15 10
M  ZZI  15 211
M  ZZM  16 1
M  ZZI  16 112
M  ZZM  17 37
M  ZZI  17 124
M  ZZM  18 37
M  ZZI  18 125
M  ZZM  19 37
M  ZZI  19 125
M  ZZM  20 37
M  ZZI  20 124
M  ZZM  21 63
M  ZZI  21 104
M  ZZM  22 64
M  ZZI  22 105
M  ZZM  23 1
M  ZZI  23 111
M  ZZM  24 66
M  ZZI  24 222
M  ZZM  25 63
M  ZZI  25 104
M  ZZM  26 44
M  ZZI  26 248
M  ZZM  27 37
M  ZZI  27 125
M  ZZM  28 37
M  ZZI  28 125
M  ZZM  29 1
M  ZZI  29 112
M  ZZM  30 1
M  ZZI  30 113
M  ZZM  31 6
M  ZZI  31 60
M  ZZM  32 1
M  ZZI  32 112
M  ZZM  33 1
M  ZZI  33 111
M  ZZM  34 28
M  ZZI  34 11
M  ZZM  35 5
M  ZZI  35 1
M  ZZM  36 5
M  ZZI  36 1
M  ZZM  37 5
M  ZZI  37 1
M  ZZM  38 5
M  ZZI  38 1
M  ZZM  39 5
M  ZZI  39 1
M  ZZM  40 5
M  ZZI  40 1
M  ZZM  41 5
M  ZZI  41 1
M  ZZM  42 5
M  ZZI  42 1
M  ZZM  43 5
M  ZZI  43 1
M  ZZM  44 5
M  ZZI  44 1
M  ZZM  45 5
M  ZZI  45 1
M  ZZM  46 28
M  ZZI  46 11
M  ZZM  47 5
M  ZZI  47 1
M  ZZM  48 5
M  ZZI  48 1
M  ZZM  49 5
M  ZZI  49 1
M  ZZM  50 5
M  ZZI  50 1
M  ZZM  51 5
M  ZZI  51 1
M  ZZM  52 5
M  ZZI  52 1
M  ZZM  53 5
M  ZZI  53 1
M  ZZM  54 5
M  ZZI  54 1
M  ZZM  55 5
M  ZZI  55 1
M  ZZM  56 5
M  ZZI  56 1
M  ZZM  57 5
M  ZZI  57 1
M  ZZM  58 5
M  ZZI  58 1
M  ZZM  59 5
M  ZZI  59 1
M  ZZM  60 21
M  ZZI  60 20
M  ZZM  61 5
M  ZZI  61 1
M  ZZM  62 5
M  ZZI  62 1
M  ZZM  63 5
M  ZZI  63 1
M  ZZM  64 5
M  ZZI  64 1
M  ZZM  65 5
M  ZZI  65 1
M  END
> <IX>
1

> <NAME>
VHL_5WUK_2.pdb

> <Score>
-26.492149

> <Natom>
65

> <Nflex>
8

> <Hbond>
-6.538686

> <Hphob>
-6.803007

> <VwInt>
-29.117735

> <Dsolv>
15.597355

> <SolEl>
5.718985

> <Eintl>
5.75655

> <RecConf>
ND

> <projPath>
VHL_maps/

> <NAME_>
VHL_5WUK_2.pdb

$$$$
