VHL_5UIU_2.pdb
  MOLSOFT 04032206423D

 65 67  0  0  1  0  0  0  0  0999 V2000
   15.8270   -6.1625   -5.3948 O   0  0  0  0  0  0  0  0  0  0  0  0
   16.9127   -5.7984   -4.9771 C   0  0  0  0  0  0  0  0  0  0  0  0
   17.1466   -4.6161   -4.3017 N   0  0  0  0  0  0  0  0  0  0  0  0
   16.1313   -3.5853   -4.0275 C   0  0  1  0  0  0  0  0  0  0  0  0
   15.8818   -3.4086   -2.5006 C   0  0  0  0  0  0  0  0  0  0  0  0
   17.1421   -2.9519   -1.7519 C   0  0  0  0  0  0  0  0  0  0  0  0
   15.4140   -4.7552   -1.9355 C   0  0  0  0  0  0  0  0  0  0  0  0
   14.7741   -2.3934   -2.1954 C   0  0  0  0  0  0  0  0  0  0  0  0
   16.6212   -2.3367   -4.7910 C   0  0  0  0  0  0  0  0  0  0  0  0
   17.8151   -2.0639   -4.8425 O   0  0  0  0  0  0  0  0  0  0  0  0
   15.6667   -1.5649   -5.4613 N   0  0  0  0  0  0  0  0  0  0  0  0
   16.0572   -0.6504   -6.5232 C   0  0  2  0  0  0  0  0  0  0  0  0
   16.4366    0.7415   -6.0112 C   0  0  0  0  0  0  0  0  0  0  0  0
   15.9193    1.2552   -5.0285 O   0  0  0  0  0  0  0  0  0  0  0  0
   17.3586    1.3829   -6.8172 N   0  0  0  0  0  0  0  0  0  0  0  0
   17.8047    2.7403   -6.5501 C   0  0  0  0  0  0  0  0  0  0  0  0
   19.2247    3.0153   -6.9840 C   0  0  0  0  0  0  0  0  0  0  0  0
   19.6595    4.3234   -7.1858 C   0  0  0  0  0  0  0  0  0  0  0  0
   20.9776    4.5985   -7.5227 C   0  0  0  0  0  0  0  0  0  0  0  0
   21.8973    3.5678   -7.6704 C   0  0  0  0  0  0  0  0  0  0  0  0
   23.2938    3.8261   -7.9825 C   0  0  0  0  0  0  0  0  0  0  0  0
   24.3256    4.2868   -7.1765 C   0  0  0  0  0  0  0  0  0  0  0  0
   24.2443    4.6735   -5.7493 C   0  0  0  0  0  0  0  0  0  0  0  0
   25.5574    4.3663   -7.7947 N   0  0  0  0  0  0  0  0  0  0  0  0
   25.4504    3.9833   -9.0471 C   0  0  0  0  0  0  0  0  0  0  0  0
   23.8909    3.5232   -9.5657 S   0  0  0  0  0  0  0  0  0  0  0  0
   21.4637    2.2668   -7.4725 C   0  0  0  0  0  0  0  0  0  0  0  0
   20.1563    1.9948   -7.1282 C   0  0  0  0  0  0  0  0  0  0  0  0
   14.8204   -0.5802   -7.4047 C   0  0  0  0  0  0  0  0  0  0  0  0
   13.6683   -0.7031   -6.4188 C   0  0  1  0  0  0  0  0  0  0  0  0
   12.5290   -1.3239   -7.0082 O   0  0  0  0  0  0  0  0  0  0  0  0
   14.2210   -1.5891   -5.3153 C   0  0  0  0  0  0  0  0  0  0  0  0
   18.1369   -6.6561   -5.1449 C   0  0  0  0  0  0  0  0  0  0  0  0
   18.1057   -4.4001   -4.0570 H   0  0  0  0  0  0  0  0  0  0  0  0
   15.2029   -3.9314   -4.4813 H   0  0  0  0  0  0  0  0  0  0  0  0
   17.9610   -3.6580   -1.8749 H   0  0  0  0  0  0  0  0  0  0  0  0
   16.9573   -2.8656   -0.6762 H   0  0  0  0  0  0  0  0  0  0  0  0
   17.4917   -1.9752   -2.1004 H   0  0  0  0  0  0  0  0  0  0  0  0
   14.5243   -5.1228   -2.4567 H   0  0  0  0  0  0  0  0  0  0  0  0
   15.1573   -4.6672   -0.8775 H   0  0  0  0  0  0  0  0  0  0  0  0
   16.1828   -5.5242   -2.0308 H   0  0  0  0  0  0  0  0  0  0  0  0
   14.5718   -2.3334   -1.1218 H   0  0  0  0  0  0  0  0  0  0  0  0
   13.8465   -2.6376   -2.7205 H   0  0  0  0  0  0  0  0  0  0  0  0
   15.0561   -1.3859   -2.5190 H   0  0  0  0  0  0  0  0  0  0  0  0
   16.9062   -1.0702   -7.0728 H   0  0  0  0  0  0  0  0  0  0  0  0
   17.7465    0.8876   -7.6153 H   0  0  0  0  0  0  0  0  0  0  0  0
   17.1170    3.3995   -7.0910 H   0  0  0  0  0  0  0  0  0  0  0  0
   17.7052    2.9512   -5.4801 H   0  0  0  0  0  0  0  0  0  0  0  0
   18.9655    5.1508   -7.0698 H   0  0  0  0  0  0  0  0  0  0  0  0
   21.2845    5.6302   -7.6665 H   0  0  0  0  0  0  0  0  0  0  0  0
   24.1597    5.7596   -5.6552 H   0  0  0  0  0  0  0  0  0  0  0  0
   25.1419    4.3533   -5.2120 H   0  0  0  0  0  0  0  0  0  0  0  0
   23.3821    4.2213   -5.2520 H   0  0  0  0  0  0  0  0  0  0  0  0
   26.2965    3.9616   -9.7190 H   0  0  0  0  0  0  0  0  0  0  0  0
   22.1526    1.4381   -7.5793 H   0  0  0  0  0  0  0  0  0  0  0  0
   19.8755    0.9609   -6.9671 H   0  0  0  0  0  0  0  0  0  0  0  0
   14.7536    0.3358   -8.0012 H   0  0  0  0  0  0  0  0  0  0  0  0
   14.8104   -1.4246   -8.1024 H   0  0  0  0  0  0  0  0  0  0  0  0
   13.3718    0.2746   -6.0219 H   0  0  0  0  0  0  0  0  0  0  0  0
   12.1713   -0.7246   -7.6882 H   0  0  0  0  0  0  0  0  0  0  0  0
   13.8363   -2.6097   -5.3448 H   0  0  0  0  0  0  0  0  0  0  0  0
   13.9548   -1.1578   -4.3502 H   0  0  0  0  0  0  0  0  0  0  0  0
   18.0416   -7.2506   -6.0584 H   0  0  0  0  0  0  0  0  0  0  0  0
   18.2204   -7.3283   -4.2877 H   0  0  0  0  0  0  0  0  0  0  0  0
   19.0412   -6.0454   -5.2244 H   0  0  0  0  0  0  0  0  0  0  0  0
  1  2  2  0  0  0  0
  2  3  1  0  0  0  0
  2 33  1  0  0  0  0
  4  3  1  0  0  0  0
  3 34  1  0  0  0  0
  4  5  1  0  0  0  0
  4 35  1  0  0  0  0
  4  9  1  0  0  0  0
  5  6  1  0  0  0  0
  5  7  1  0  0  0  0
  5  8  1  0  0  0  0
  6 36  1  0  0  0  0
  6 37  1  0  0  0  0
  6 38  1  0  0  0  0
  7 39  1  0  0  0  0
  7 40  1  0  0  0  0
  7 41  1  0  0  0  0
  8 42  1  0  0  0  0
  8 43  1  0  0  0  0
  8 44  1  0  0  0  0
  9 10  2  0  0  0  0
  9 11  1  0  0  0  0
 11 32  1  0  0  0  0
 12 11  1  0  0  0  0
 12 29  1  0  0  0  0
 12 45  1  0  0  0  0
 12 13  1  0  0  0  0
 13 14  2  0  0  0  0
 13 15  1  0  0  0  0
 15 46  1  0  0  0  0
 15 16  1  0  0  0  0
 16 47  1  0  0  0  0
 16 48  1  0  0  0  0
 16 17  1  0  0  0  0
 17 18  1  0  0  0  0
 17 28  2  0  0  0  0
 18 49  1  0  0  0  0
 18 19  2  0  0  0  0
 19 50  1  0  0  0  0
 19 20  1  0  0  0  0
 20 27  2  0  0  0  0
 20 21  1  0  0  0  0
 21 22  2  0  0  0  0
 21 26  1  0  0  0  0
 22 23  1  0  0  0  0
 22 24  1  0  0  0  0
 23 51  1  0  0  0  0
 23 52  1  0  0  0  0
 23 53  1  0  0  0  0
 24 25  2  0  0  0  0
 25 54  1  0  0  0  0
 25 26  1  0  0  0  0
 27 55  1  0  0  0  0
 27 28  1  0  0  0  0
 28 56  1  0  0  0  0
 30 29  1  0  0  0  0
 29 57  1  0  0  0  0
 29 58  1  0  0  0  0
 30 32  1  0  0  0  0
 30 59  1  0  0  0  0
 30 31  1  0  0  0  0
 31 60  1  0  0  0  0
 32 61  1  0  0  0  0
 32 62  1  0  0  0  0
 33 63  1  0  0  0  0
 33 64  1  0  0  0  0
 33 65  1  0  0  0  0
M  ZZC   1 o1
M  ZZC   2 c1
M  ZZC   3 n1
M  ZZC   4 c2
M  ZZC   5 c3
M  ZZC   6 c4
M  ZZC   7 c5
M  ZZC   8 c6
M  ZZC   9 c7
M  ZZC  10 o2
M  ZZC  11 n2
M  ZZC  12 c8
M  ZZC  13 c9
M  ZZC  14 o3
M  ZZC  15 n3
M  ZZC  16 c10
M  ZZC  17 c11
M  ZZC  18 c12
M  ZZC  19 c13
M  ZZC  20 c14
M  ZZC  21 c15
M  ZZC  22 c16
M  ZZC  23 c17
M  ZZC  24 n4
M  ZZC  25 c18
M  ZZC  26 s1
M  ZZC  27 c19
M  ZZC  28 c20
M  ZZC  29 c21
M  ZZC  30 c22
M  ZZC  31 o4
M  ZZC  32 c23
M  ZZC  33 c24
M  ZZC  34 h11
M  ZZC  35 h21
M  ZZC  36 h41
M  ZZC  37 h42
M  ZZC  38 h43
M  ZZC  39 h51
M  ZZC  40 h52
M  ZZC  41 h53
M  ZZC  42 h61
M  ZZC  43 h62
M  ZZC  44 h63
M  ZZC  45 h81
M  ZZC  46 h31
M  ZZC  47 h101
M  ZZC  48 h102
M  ZZC  49 h121
M  ZZC  50 h131
M  ZZC  51 h171
M  ZZC  52 h172
M  ZZC  53 h173
M  ZZC  54 h181
M  ZZC  55 h191
M  ZZC  56 h201
M  ZZC  57 h211
M  ZZC  58 h212
M  ZZC  59 h221
M  ZZC  60 h01
M  ZZC  61 h231
M  ZZC  62 h232
M  ZZC  63 h241
M  ZZC  64 h242
M  ZZC  65 h243
M  ZZM   1 7
M  ZZI   1 81
M  ZZM   2 3
M  ZZI   2 121
M  ZZM   3 10
M  ZZI   3 211
M  ZZM   4 1
M  ZZI   4 113
M  ZZM   5 1
M  ZZI   5 110
M  ZZM   6 1
M  ZZI   6 111
M  ZZM   7 1
M  ZZI   7 111
M  ZZM   8 1
M  ZZI   8 111
M  ZZM   9 3
M  ZZI   9 121
M  ZZM  10 7
M  ZZI  10 81
M  ZZM  11 10
M  ZZI  11 192
M  ZZM  12 1
M  ZZI  12 113
M  ZZM  13 3
M  ZZI  13 121
M  ZZM  14 7
M  ZZI  14 81
M  ZZM  15 10
M  ZZI  15 211
M  ZZM  16 1
M  ZZI  16 112
M  ZZM  17 37
M  ZZI  17 124
M  ZZM  18 37
M  ZZI  18 125
M  ZZM  19 37
M  ZZI  19 125
M  ZZM  20 37
M  ZZI  20 124
M  ZZM  21 63
M  ZZI  21 104
M  ZZM  22 64
M  ZZI  22 105
M  ZZM  23 1
M  ZZI  23 111
M  ZZM  24 66
M  ZZI  24 222
M  ZZM  25 63
M  ZZI  25 104
M  ZZM  26 44
M  ZZI  26 248
M  ZZM  27 37
M  ZZI  27 125
M  ZZM  28 37
M  ZZI  28 125
M  ZZM  29 1
M  ZZI  29 112
M  ZZM  30 1
M  ZZI  30 113
M  ZZM  31 6
M  ZZI  31 60
M  ZZM  32 1
M  ZZI  32 112
M  ZZM  33 1
M  ZZI  33 111
M  ZZM  34 28
M  ZZI  34 11
M  ZZM  35 5
M  ZZI  35 1
M  ZZM  36 5
M  ZZI  36 1
M  ZZM  37 5
M  ZZI  37 1
M  ZZM  38 5
M  ZZI  38 1
M  ZZM  39 5
M  ZZI  39 1
M  ZZM  40 5
M  ZZI  40 1
M  ZZM  41 5
M  ZZI  41 1
M  ZZM  42 5
M  ZZI  42 1
M  ZZM  43 5
M  ZZI  43 1
M  ZZM  44 5
M  ZZI  44 1
M  ZZM  45 5
M  ZZI  45 1
M  ZZM  46 28
M  ZZI  46 11
M  ZZM  47 5
M  ZZI  47 1
M  ZZM  48 5
M  ZZI  48 1
M  ZZM  49 5
M  ZZI  49 1
M  ZZM  50 5
M  ZZI  50 1
M  ZZM  51 5
M  ZZI  51 1
M  ZZM  52 5
M  ZZI  52 1
M  ZZM  53 5
M  ZZI  53 1
M  ZZM  54 5
M  ZZI  54 1
M  ZZM  55 5
M  ZZI  55 1
M  ZZM  56 5
M  ZZI  56 1
M  ZZM  57 5
M  ZZI  57 1
M  ZZM  58 5
M  ZZI  58 1
M  ZZM  59 5
M  ZZI  59 1
M  ZZM  60 21
M  ZZI  60 20
M  ZZM  61 5
M  ZZI  61 1
M  ZZM  62 5
M  ZZI  62 1
M  ZZM  63 5
M  ZZI  63 1
M  ZZM  64 5
M  ZZI  64 1
M  ZZM  65 5
M  ZZI  65 1
M  END
> <IX>
1

> <NAME>
VHL_5UIU_2.pdb

> <Score>
-12.669293

> <Natom>
65

> <Nflex>
8

> <Hbond>
-4.931307

> <Hphob>
-6.483824

> <VwInt>
-28.776558

> <Dsolv>
16.670786

> <SolEl>
16.056714

> <Eintl>
8.378523

> <RecConf>
ND

> <projPath>
VHL_maps/

> <NAME_>
VHL_5UIU_2.pdb

$$$$
