VHL_5G0J_5.pdb
  MOLSOFT 04032206423D

 65 67  0  0  1  0  0  0  0  0999 V2000
   18.1294   -6.6526   -5.1399 C   0  0  0  0  0  0  0  0  0  0  0  0
   16.9095   -5.7872   -4.9800 C   0  0  0  0  0  0  0  0  0  0  0  0
   15.8246   -6.1514   -5.3995 O   0  0  0  0  0  0  0  0  0  0  0  0
   17.1489   -4.6085   -4.3013 N   0  0  0  0  0  0  0  0  0  0  0  0
   16.1354   -3.5761   -4.0282 C   0  0  1  0  0  0  0  0  0  0  0  0
   15.8862   -3.3983   -2.5012 C   0  0  0  0  0  0  0  0  0  0  0  0
   15.4196   -4.7445   -1.9340 C   0  0  0  0  0  0  0  0  0  0  0  0
   14.7780   -2.3835   -2.1968 C   0  0  0  0  0  0  0  0  0  0  0  0
   17.1465   -2.9407   -1.7532 C   0  0  0  0  0  0  0  0  0  0  0  0
   16.6279   -2.3286   -4.7925 C   0  0  0  0  0  0  0  0  0  0  0  0
   17.8221   -2.0567   -4.8422 O   0  0  0  0  0  0  0  0  0  0  0  0
   15.6752   -1.5555   -5.4639 N   0  0  0  0  0  0  0  0  0  0  0  0
   16.0683   -0.6415   -6.5259 C   0  0  2  0  0  0  0  0  0  0  0  0
   16.4513    0.7495   -6.0136 C   0  0  0  0  0  0  0  0  0  0  0  0
   15.9263    1.2693   -5.0383 O   0  0  0  0  0  0  0  0  0  0  0  0
   17.3892    1.3819   -6.8086 N   0  0  0  0  0  0  0  0  0  0  0  0
   17.8405    2.7369   -6.5373 C   0  0  0  0  0  0  0  0  0  0  0  0
   19.2492    3.0178   -7.0040 C   0  0  0  0  0  0  0  0  0  0  0  0
   19.6650    4.3239   -7.2542 C   0  0  0  0  0  0  0  0  0  0  0  0
   20.9737    4.6030   -7.6241 C   0  0  0  0  0  0  0  0  0  0  0  0
   21.9037    3.5789   -7.7517 C   0  0  0  0  0  0  0  0  0  0  0  0
   23.2880    3.8394   -8.1127 C   0  0  0  0  0  0  0  0  0  0  0  0
   24.3575    4.2578   -7.3341 C   0  0  0  0  0  0  0  0  0  0  0  0
   24.3296    4.5881   -5.8913 C   0  0  0  0  0  0  0  0  0  0  0  0
   25.5657    4.3392   -7.9971 N   0  0  0  0  0  0  0  0  0  0  0  0
   25.4014    4.0076   -9.2579 C   0  0  0  0  0  0  0  0  0  0  0  0
   23.8150    3.5908   -9.7288 S   0  0  0  0  0  0  0  0  0  0  0  0
   21.4901    2.2807   -7.5003 C   0  0  0  0  0  0  0  0  0  0  0  0
   20.1907    2.0044   -7.1293 C   0  0  0  0  0  0  0  0  0  0  0  0
   14.8321   -0.5684   -7.4080 C   0  0  0  0  0  0  0  0  0  0  0  0
   13.6788   -0.6912   -6.4232 C   0  0  1  0  0  0  0  0  0  0  0  0
   12.5383   -1.3081   -7.0147 O   0  0  0  0  0  0  0  0  0  0  0  0
   14.2291   -1.5808   -5.3216 C   0  0  0  0  0  0  0  0  0  0  0  0
   19.0255   -6.0442   -5.2959 H   0  0  0  0  0  0  0  0  0  0  0  0
   18.0013   -7.3052   -6.0088 H   0  0  0  0  0  0  0  0  0  0  0  0
   18.2501   -7.2687   -4.2459 H   0  0  0  0  0  0  0  0  0  0  0  0
   18.1088   -4.3993   -4.0516 H   0  0  0  0  0  0  0  0  0  0  0  0
   15.2065   -3.9208   -4.4820 H   0  0  0  0  0  0  0  0  0  0  0  0
   15.1612   -4.6559   -0.8762 H   0  0  0  0  0  0  0  0  0  0  0  0
   16.1900   -5.5122   -2.0267 H   0  0  0  0  0  0  0  0  0  0  0  0
   14.5322   -5.1152   -2.4570 H   0  0  0  0  0  0  0  0  0  0  0  0
   15.0615   -1.3722   -2.5012 H   0  0  0  0  0  0  0  0  0  0  0  0
   14.5650   -2.3350   -1.1238 H   0  0  0  0  0  0  0  0  0  0  0  0
   13.8407   -2.6555   -2.6914 H   0  0  0  0  0  0  0  0  0  0  0  0
   16.9643   -2.8615   -0.6766 H   0  0  0  0  0  0  0  0  0  0  0  0
   17.4898   -1.9600   -2.0967 H   0  0  0  0  0  0  0  0  0  0  0  0
   17.9700   -3.6403   -1.8828 H   0  0  0  0  0  0  0  0  0  0  0  0
   16.9160   -1.0635   -7.0757 H   0  0  0  0  0  0  0  0  0  0  0  0
   17.7817    0.8837   -7.6025 H   0  0  0  0  0  0  0  0  0  0  0  0
   17.1378    3.4019   -7.0512 H   0  0  0  0  0  0  0  0  0  0  0  0
   17.7682    2.9341   -5.4625 H   0  0  0  0  0  0  0  0  0  0  0  0
   18.9628    5.1466   -7.1545 H   0  0  0  0  0  0  0  0  0  0  0  0
   21.2649    5.6324   -7.8107 H   0  0  0  0  0  0  0  0  0  0  0  0
   25.3013    4.9622   -5.5565 H   0  0  0  0  0  0  0  0  0  0  0  0
   24.0838    3.7079   -5.2903 H   0  0  0  0  0  0  0  0  0  0  0  0
   23.5756    5.3516   -5.6857 H   0  0  0  0  0  0  0  0  0  0  0  0
   26.2184    3.9996   -9.9651 H   0  0  0  0  0  0  0  0  0  0  0  0
   22.1874    1.4575   -7.5935 H   0  0  0  0  0  0  0  0  0  0  0  0
   19.9214    0.9728   -6.9357 H   0  0  0  0  0  0  0  0  0  0  0  0
   14.7672    0.3482   -8.0038 H   0  0  0  0  0  0  0  0  0  0  0  0
   14.8210   -1.4120   -8.1067 H   0  0  0  0  0  0  0  0  0  0  0  0
   13.3844    0.2866   -6.0248 H   0  0  0  0  0  0  0  0  0  0  0  0
   12.1901   -0.7123   -7.7025 H   0  0  0  0  0  0  0  0  0  0  0  0
   13.8451   -2.6015   -5.3562 H   0  0  0  0  0  0  0  0  0  0  0  0
   13.9596   -1.1537   -4.3557 H   0  0  0  0  0  0  0  0  0  0  0  0
  1 34  1  0  0  0  0
  1 35  1  0  0  0  0
  1 36  1  0  0  0  0
  1  2  1  0  0  0  0
  2  3  2  0  0  0  0
  2  4  1  0  0  0  0
  4 37  1  0  0  0  0
  5  4  1  0  0  0  0
  5 38  1  0  0  0  0
  5  6  1  0  0  0  0
  5 10  1  0  0  0  0
  6  7  1  0  0  0  0
  6  8  1  0  0  0  0
  6  9  1  0  0  0  0
  7 39  1  0  0  0  0
  7 40  1  0  0  0  0
  7 41  1  0  0  0  0
  8 42  1  0  0  0  0
  8 43  1  0  0  0  0
  8 44  1  0  0  0  0
  9 45  1  0  0  0  0
  9 46  1  0  0  0  0
  9 47  1  0  0  0  0
 10 11  2  0  0  0  0
 10 12  1  0  0  0  0
 12 33  1  0  0  0  0
 13 12  1  0  0  0  0
 13 30  1  0  0  0  0
 13 48  1  0  0  0  0
 13 14  1  0  0  0  0
 14 15  2  0  0  0  0
 14 16  1  0  0  0  0
 16 49  1  0  0  0  0
 16 17  1  0  0  0  0
 17 50  1  0  0  0  0
 17 51  1  0  0  0  0
 17 18  1  0  0  0  0
 18 19  1  0  0  0  0
 18 29  2  0  0  0  0
 19 52  1  0  0  0  0
 19 20  2  0  0  0  0
 20 53  1  0  0  0  0
 20 21  1  0  0  0  0
 21 28  2  0  0  0  0
 21 22  1  0  0  0  0
 22 23  2  0  0  0  0
 22 27  1  0  0  0  0
 23 24  1  0  0  0  0
 23 25  1  0  0  0  0
 24 54  1  0  0  0  0
 24 55  1  0  0  0  0
 24 56  1  0  0  0  0
 25 26  2  0  0  0  0
 26 57  1  0  0  0  0
 26 27  1  0  0  0  0
 28 58  1  0  0  0  0
 28 29  1  0  0  0  0
 29 59  1  0  0  0  0
 31 30  1  0  0  0  0
 30 60  1  0  0  0  0
 30 61  1  0  0  0  0
 31 33  1  0  0  0  0
 31 62  1  0  0  0  0
 31 32  1  0  0  0  0
 32 63  1  0  0  0  0
 33 64  1  0  0  0  0
 33 65  1  0  0  0  0
M  ZZC   1 c1
M  ZZC   2 c2
M  ZZC   3 o1
M  ZZC   4 n1
M  ZZC   5 c3
M  ZZC   6 c4
M  ZZC   7 c5
M  ZZC   8 c6
M  ZZC   9 c7
M  ZZC  10 c8
M  ZZC  11 o2
M  ZZC  12 n2
M  ZZC  13 c9
M  ZZC  14 c10
M  ZZC  15 o3
M  ZZC  16 n3
M  ZZC  17 c11
M  ZZC  18 c12
M  ZZC  19 c13
M  ZZC  20 c14
M  ZZC  21 c15
M  ZZC  22 c16
M  ZZC  23 c17
M  ZZC  24 c18
M  ZZC  25 n4
M  ZZC  26 c19
M  ZZC  27 s1
M  ZZC  28 c20
M  ZZC  29 c21
M  ZZC  30 c22
M  ZZC  31 c23
M  ZZC  32 o4
M  ZZC  33 c24
M  ZZC  34 h11
M  ZZC  35 h12
M  ZZC  36 h13
M  ZZC  37 h01
M  ZZC  38 h31
M  ZZC  39 h51
M  ZZC  40 h52
M  ZZC  41 h53
M  ZZC  42 h61
M  ZZC  43 h62
M  ZZC  44 h63
M  ZZC  45 h71
M  ZZC  46 h72
M  ZZC  47 h73
M  ZZC  48 h91
M  ZZC  49 h02
M  ZZC  50 h111
M  ZZC  51 h112
M  ZZC  52 h131
M  ZZC  53 h141
M  ZZC  54 h181
M  ZZC  55 h182
M  ZZC  56 h183
M  ZZC  57 h191
M  ZZC  58 h201
M  ZZC  59 h211
M  ZZC  60 h221
M  ZZC  61 h222
M  ZZC  62 h231
M  ZZC  63 h41
M  ZZC  64 h241
M  ZZC  65 h242
M  ZZM   1 1
M  ZZI   1 111
M  ZZM   2 3
M  ZZI   2 121
M  ZZM   3 7
M  ZZI   3 81
M  ZZM   4 10
M  ZZI   4 211
M  ZZM   5 1
M  ZZI   5 113
M  ZZM   6 1
M  ZZI   6 110
M  ZZM   7 1
M  ZZI   7 111
M  ZZM   8 1
M  ZZI   8 111
M  ZZM   9 1
M  ZZI   9 111
M  ZZM  10 3
M  ZZI  10 121
M  ZZM  11 7
M  ZZI  11 81
M  ZZM  12 10
M  ZZI  12 192
M  ZZM  13 1
M  ZZI  13 113
M  ZZM  14 3
M  ZZI  14 121
M  ZZM  15 7
M  ZZI  15 81
M  ZZM  16 10
M  ZZI  16 211
M  ZZM  17 1
M  ZZI  17 112
M  ZZM  18 37
M  ZZI  18 124
M  ZZM  19 37
M  ZZI  19 125
M  ZZM  20 37
M  ZZI  20 125
M  ZZM  21 37
M  ZZI  21 124
M  ZZM  22 63
M  ZZI  22 104
M  ZZM  23 64
M  ZZI  23 105
M  ZZM  24 1
M  ZZI  24 111
M  ZZM  25 66
M  ZZI  25 222
M  ZZM  26 63
M  ZZI  26 104
M  ZZM  27 44
M  ZZI  27 248
M  ZZM  28 37
M  ZZI  28 125
M  ZZM  29 37
M  ZZI  29 125
M  ZZM  30 1
M  ZZI  30 112
M  ZZM  31 1
M  ZZI  31 113
M  ZZM  32 6
M  ZZI  32 60
M  ZZM  33 1
M  ZZI  33 112
M  ZZM  34 5
M  ZZI  34 1
M  ZZM  35 5
M  ZZI  35 1
M  ZZM  36 5
M  ZZI  36 1
M  ZZM  37 28
M  ZZI  37 11
M  ZZM  38 5
M  ZZI  38 1
M  ZZM  39 5
M  ZZI  39 1
M  ZZM  40 5
M  ZZI  40 1
M  ZZM  41 5
M  ZZI  41 1
M  ZZM  42 5
M  ZZI  42 1
M  ZZM  43 5
M  ZZI  43 1
M  ZZM  44 5
M  ZZI  44 1
M  ZZM  45 5
M  ZZI  45 1
M  ZZM  46 5
M  ZZI  46 1
M  ZZM  47 5
M  ZZI  47 1
M  ZZM  48 5
M  ZZI  48 1
M  ZZM  49 28
M  ZZI  49 11
M  ZZM  50 5
M  ZZI  50 1
M  ZZM  51 5
M  ZZI  51 1
M  ZZM  52 5
M  ZZI  52 1
M  ZZM  53 5
M  ZZI  53 1
M  ZZM  54 5
M  ZZI  54 1
M  ZZM  55 5
M  ZZI  55 1
M  ZZM  56 5
M  ZZI  56 1
M  ZZM  57 5
M  ZZI  57 1
M  ZZM  58 5
M  ZZI  58 1
M  ZZM  59 5
M  ZZI  59 1
M  ZZM  60 5
M  ZZI  60 1
M  ZZM  61 5
M  ZZI  61 1
M  ZZM  62 5
M  ZZI  62 1
M  ZZM  63 21
M  ZZI  63 20
M  ZZM  64 5
M  ZZI  64 1
M  ZZM  65 5
M  ZZI  65 1
M  END
> <IX>
1

> <NAME>
VHL_5G0J_5.pdb

> <Score>
-11.902772

> <Natom>
65

> <Nflex>
8

> <Hbond>
-4.957766

> <Hphob>
-6.417629

> <VwInt>
-28.230236

> <Dsolv>
16.804412

> <SolEl>
16.697768

> <Eintl>
7.910981

> <RecConf>
ND

> <projPath>
VHL_maps/

> <NAME_>
VHL_5G0J_5.pdb

$$$$
