VHL_5EKO_2.pdb
  MOLSOFT 04032206413D

 65 67  0  0  1  0  0  0  0  0999 V2000
   18.2971   -7.0921   -5.2818 C   0  0  0  0  0  0  0  0  0  0  0  0
   17.1517   -6.1192   -5.2720 C   0  0  0  0  0  0  0  0  0  0  0  0
   16.0553   -6.4389   -5.7016 O   0  0  0  0  0  0  0  0  0  0  0  0
   17.4655   -4.8971   -4.7097 N   0  0  0  0  0  0  0  0  0  0  0  0
   16.5229   -3.7780   -4.6148 C   0  0  1  0  0  0  0  0  0  0  0  0
   15.8913   -3.6188   -3.1942 C   0  0  0  0  0  0  0  0  0  0  0  0
   15.3826   -4.9709   -2.6722 C   0  0  0  0  0  0  0  0  0  0  0  0
   16.8938   -3.0633   -2.1704 C   0  0  0  0  0  0  0  0  0  0  0  0
   14.6845   -2.6685   -3.2467 C   0  0  0  0  0  0  0  0  0  0  0  0
   17.2608   -2.5153   -5.0948 C   0  0  0  0  0  0  0  0  0  0  0  0
   18.4223   -2.3022   -4.7787 O   0  0  0  0  0  0  0  0  0  0  0  0
   16.5485   -1.5733   -5.8376 N   0  0  0  0  0  0  0  0  0  0  0  0
   17.1672   -0.3070   -6.2011 C   0  0  2  0  0  0  0  0  0  0  0  0
   17.4824    0.6355   -5.0470 C   0  0  0  0  0  0  0  0  0  0  0  0
   16.8623    0.6429   -3.9923 O   0  0  0  0  0  0  0  0  0  0  0  0
   18.4452    1.5648   -5.3998 N   0  0  0  0  0  0  0  0  0  0  0  0
   18.5235    2.8544   -4.7512 C   0  0  0  0  0  0  0  0  0  0  0  0
   17.5067    3.7530   -5.4035 C   0  0  0  0  0  0  0  0  0  0  0  0
   16.2016    3.7842   -4.9232 C   0  0  0  0  0  0  0  0  0  0  0  0
   15.2015    4.3989   -5.6486 C   0  0  0  0  0  0  0  0  0  0  0  0
   15.4887    5.0132   -6.8593 C   0  0  0  0  0  0  0  0  0  0  0  0
   14.4035    5.5467   -7.6561 C   0  0  0  0  0  0  0  0  0  0  0  0
   13.4521    4.8830   -8.4177 C   0  0  0  0  0  0  0  0  0  0  0  0
   13.3728    3.4257   -8.6766 C   0  0  0  0  0  0  0  0  0  0  0  0
   12.4763    5.6944   -8.9537 N   0  0  0  0  0  0  0  0  0  0  0  0
   12.7477    6.9474   -8.6618 C   0  0  0  0  0  0  0  0  0  0  0  0
   14.1308    7.2379   -7.7120 S   0  0  0  0  0  0  0  0  0  0  0  0
   16.8037    5.0588   -7.3055 C   0  0  0  0  0  0  0  0  0  0  0  0
   17.8035    4.4245   -6.5872 C   0  0  0  0  0  0  0  0  0  0  0  0
   16.1588    0.3772   -7.1203 C   0  0  0  0  0  0  0  0  0  0  0  0
   15.4304   -0.7805   -7.7646 C   0  0  1  0  0  0  0  0  0  0  0  0
   16.1724   -1.2486   -8.9000 O   0  0  0  0  0  0  0  0  0  0  0  0
   15.3823   -1.8319   -6.6615 C   0  0  0  0  0  0  0  0  0  0  0  0
   19.2608   -6.5738   -5.2896 H   0  0  0  0  0  0  0  0  0  0  0  0
   18.2341   -7.7120   -6.1801 H   0  0  0  0  0  0  0  0  0  0  0  0
   18.2259   -7.7291   -4.3979 H   0  0  0  0  0  0  0  0  0  0  0  0
   18.4099   -4.7520   -4.3722 H   0  0  0  0  0  0  0  0  0  0  0  0
   15.7343   -3.9983   -5.3207 H   0  0  0  0  0  0  0  0  0  0  0  0
   14.8948   -4.8682   -1.6981 H   0  0  0  0  0  0  0  0  0  0  0  0
   16.1923   -5.6942   -2.5456 H   0  0  0  0  0  0  0  0  0  0  0  0
   14.6493   -5.4060   -3.3537 H   0  0  0  0  0  0  0  0  0  0  0  0
   16.4687   -3.0372   -1.1660 H   0  0  0  0  0  0  0  0  0  0  0  0
   17.1946   -2.0409   -2.4211 H   0  0  0  0  0  0  0  0  0  0  0  0
   17.8097   -3.6601   -2.1256 H   0  0  0  0  0  0  0  0  0  0  0  0
   14.9730   -1.6530   -3.5307 H   0  0  0  0  0  0  0  0  0  0  0  0
   14.1906   -2.5945   -2.2723 H   0  0  0  0  0  0  0  0  0  0  0  0
   13.9331   -3.0157   -3.9628 H   0  0  0  0  0  0  0  0  0  0  0  0
   18.0928   -0.5336   -6.7269 H   0  0  0  0  0  0  0  0  0  0  0  0
   18.9636    1.4423   -6.2639 H   0  0  0  0  0  0  0  0  0  0  0  0
   18.3317    2.7486   -3.6778 H   0  0  0  0  0  0  0  0  0  0  0  0
   19.5386    3.2442   -4.8800 H   0  0  0  0  0  0  0  0  0  0  0  0
   15.9404    3.2642   -4.0056 H   0  0  0  0  0  0  0  0  0  0  0  0
   14.1804    4.3639   -5.2780 H   0  0  0  0  0  0  0  0  0  0  0  0
   14.2436    3.0902   -9.2468 H   0  0  0  0  0  0  0  0  0  0  0  0
   12.4824    3.1755   -9.2602 H   0  0  0  0  0  0  0  0  0  0  0  0
   13.3337    2.8578   -7.7431 H   0  0  0  0  0  0  0  0  0  0  0  0
   12.1324    7.7671   -8.9886 H   0  0  0  0  0  0  0  0  0  0  0  0
   17.0509    5.5530   -8.2409 H   0  0  0  0  0  0  0  0  0  0  0  0
   18.8136    4.4137   -6.9866 H   0  0  0  0  0  0  0  0  0  0  0  0
   15.4508    0.9836   -6.5433 H   0  0  0  0  0  0  0  0  0  0  0  0
   16.6506    1.0309   -7.8488 H   0  0  0  0  0  0  0  0  0  0  0  0
   14.4313   -0.5011   -8.1045 H   0  0  0  0  0  0  0  0  0  0  0  0
   17.1186   -1.1956   -8.6723 H   0  0  0  0  0  0  0  0  0  0  0  0
   15.4202   -2.8452   -7.0676 H   0  0  0  0  0  0  0  0  0  0  0  0
   14.4961   -1.7081   -6.0318 H   0  0  0  0  0  0  0  0  0  0  0  0
  1 34  1  0  0  0  0
  1 35  1  0  0  0  0
  1 36  1  0  0  0  0
  1  2  1  0  0  0  0
  2  3  2  0  0  0  0
  2  4  1  0  0  0  0
  4 37  1  0  0  0  0
  5  4  1  0  0  0  0
  5 38  1  0  0  0  0
  5  6  1  0  0  0  0
  5 10  1  0  0  0  0
  6  7  1  0  0  0  0
  6  8  1  0  0  0  0
  6  9  1  0  0  0  0
  7 39  1  0  0  0  0
  7 40  1  0  0  0  0
  7 41  1  0  0  0  0
  8 42  1  0  0  0  0
  8 43  1  0  0  0  0
  8 44  1  0  0  0  0
  9 45  1  0  0  0  0
  9 46  1  0  0  0  0
  9 47  1  0  0  0  0
 10 11  2  0  0  0  0
 10 12  1  0  0  0  0
 12 33  1  0  0  0  0
 13 12  1  0  0  0  0
 13 30  1  0  0  0  0
 13 48  1  0  0  0  0
 13 14  1  0  0  0  0
 14 15  2  0  0  0  0
 14 16  1  0  0  0  0
 16 49  1  0  0  0  0
 16 17  1  0  0  0  0
 17 50  1  0  0  0  0
 17 51  1  0  0  0  0
 17 18  1  0  0  0  0
 18 19  1  0  0  0  0
 18 29  2  0  0  0  0
 19 52  1  0  0  0  0
 19 20  2  0  0  0  0
 20 53  1  0  0  0  0
 20 21  1  0  0  0  0
 21 28  2  0  0  0  0
 21 22  1  0  0  0  0
 22 23  2  0  0  0  0
 22 27  1  0  0  0  0
 23 24  1  0  0  0  0
 23 25  1  0  0  0  0
 24 54  1  0  0  0  0
 24 55  1  0  0  0  0
 24 56  1  0  0  0  0
 25 26  2  0  0  0  0
 26 57  1  0  0  0  0
 26 27  1  0  0  0  0
 28 58  1  0  0  0  0
 28 29  1  0  0  0  0
 29 59  1  0  0  0  0
 31 30  1  0  0  0  0
 30 60  1  0  0  0  0
 30 61  1  0  0  0  0
 31 33  1  0  0  0  0
 31 62  1  0  0  0  0
 31 32  1  0  0  0  0
 32 63  1  0  0  0  0
 33 64  1  0  0  0  0
 33 65  1  0  0  0  0
M  ZZC   1 c1
M  ZZC   2 c2
M  ZZC   3 o1
M  ZZC   4 n1
M  ZZC   5 c3
M  ZZC   6 c4
M  ZZC   7 c5
M  ZZC   8 c6
M  ZZC   9 c7
M  ZZC  10 c8
M  ZZC  11 o2
M  ZZC  12 n2
M  ZZC  13 c9
M  ZZC  14 c10
M  ZZC  15 o3
M  ZZC  16 n3
M  ZZC  17 c11
M  ZZC  18 c12
M  ZZC  19 c13
M  ZZC  20 c14
M  ZZC  21 c15
M  ZZC  22 c16
M  ZZC  23 c17
M  ZZC  24 c18
M  ZZC  25 n4
M  ZZC  26 c19
M  ZZC  27 s1
M  ZZC  28 c20
M  ZZC  29 c21
M  ZZC  30 c22
M  ZZC  31 c23
M  ZZC  32 o4
M  ZZC  33 c24
M  ZZC  34 h11
M  ZZC  35 h12
M  ZZC  36 h13
M  ZZC  37 h01
M  ZZC  38 h31
M  ZZC  39 h51
M  ZZC  40 h52
M  ZZC  41 h53
M  ZZC  42 h61
M  ZZC  43 h62
M  ZZC  44 h63
M  ZZC  45 h71
M  ZZC  46 h72
M  ZZC  47 h73
M  ZZC  48 h91
M  ZZC  49 h02
M  ZZC  50 h111
M  ZZC  51 h112
M  ZZC  52 h131
M  ZZC  53 h141
M  ZZC  54 h181
M  ZZC  55 h182
M  ZZC  56 h183
M  ZZC  57 h191
M  ZZC  58 h201
M  ZZC  59 h211
M  ZZC  60 h221
M  ZZC  61 h222
M  ZZC  62 h231
M  ZZC  63 h41
M  ZZC  64 h241
M  ZZC  65 h242
M  ZZM   1 1
M  ZZI   1 111
M  ZZM   2 3
M  ZZI   2 121
M  ZZM   3 7
M  ZZI   3 81
M  ZZM   4 10
M  ZZI   4 211
M  ZZM   5 1
M  ZZI   5 113
M  ZZM   6 1
M  ZZI   6 110
M  ZZM   7 1
M  ZZI   7 111
M  ZZM   8 1
M  ZZI   8 111
M  ZZM   9 1
M  ZZI   9 111
M  ZZM  10 3
M  ZZI  10 121
M  ZZM  11 7
M  ZZI  11 81
M  ZZM  12 10
M  ZZI  12 192
M  ZZM  13 1
M  ZZI  13 113
M  ZZM  14 3
M  ZZI  14 121
M  ZZM  15 7
M  ZZI  15 81
M  ZZM  16 10
M  ZZI  16 211
M  ZZM  17 1
M  ZZI  17 112
M  ZZM  18 37
M  ZZI  18 124
M  ZZM  19 37
M  ZZI  19 125
M  ZZM  20 37
M  ZZI  20 125
M  ZZM  21 37
M  ZZI  21 124
M  ZZM  22 63
M  ZZI  22 104
M  ZZM  23 64
M  ZZI  23 105
M  ZZM  24 1
M  ZZI  24 111
M  ZZM  25 66
M  ZZI  25 222
M  ZZM  26 63
M  ZZI  26 104
M  ZZM  27 44
M  ZZI  27 248
M  ZZM  28 37
M  ZZI  28 125
M  ZZM  29 37
M  ZZI  29 125
M  ZZM  30 1
M  ZZI  30 112
M  ZZM  31 1
M  ZZI  31 113
M  ZZM  32 6
M  ZZI  32 60
M  ZZM  33 1
M  ZZI  33 112
M  ZZM  34 5
M  ZZI  34 1
M  ZZM  35 5
M  ZZI  35 1
M  ZZM  36 5
M  ZZI  36 1
M  ZZM  37 28
M  ZZI  37 11
M  ZZM  38 5
M  ZZI  38 1
M  ZZM  39 5
M  ZZI  39 1
M  ZZM  40 5
M  ZZI  40 1
M  ZZM  41 5
M  ZZI  41 1
M  ZZM  42 5
M  ZZI  42 1
M  ZZM  43 5
M  ZZI  43 1
M  ZZM  44 5
M  ZZI  44 1
M  ZZM  45 5
M  ZZI  45 1
M  ZZM  46 5
M  ZZI  46 1
M  ZZM  47 5
M  ZZI  47 1
M  ZZM  48 5
M  ZZI  48 1
M  ZZM  49 28
M  ZZI  49 11
M  ZZM  50 5
M  ZZI  50 1
M  ZZM  51 5
M  ZZI  51 1
M  ZZM  52 5
M  ZZI  52 1
M  ZZM  53 5
M  ZZI  53 1
M  ZZM  54 5
M  ZZI  54 1
M  ZZM  55 5
M  ZZI  55 1
M  ZZM  56 5
M  ZZI  56 1
M  ZZM  57 5
M  ZZI  57 1
M  ZZM  58 5
M  ZZI  58 1
M  ZZM  59 5
M  ZZI  59 1
M  ZZM  60 5
M  ZZI  60 1
M  ZZM  61 5
M  ZZI  61 1
M  ZZM  62 5
M  ZZI  62 1
M  ZZM  63 21
M  ZZI  63 20
M  ZZM  64 5
M  ZZI  64 1
M  ZZM  65 5
M  ZZI  65 1
M  END
> <IX>
1

> <NAME>
VHL_5EKO_2.pdb

> <Score>
-25.280593

> <Natom>
65

> <Nflex>
8

> <Hbond>
-9.765552

> <Hphob>
-6.503107

> <VwInt>
-31.116368

> <Dsolv>
20.660807

> <SolEl>
14.874666

> <Eintl>
7.978031

> <RecConf>
ND

> <projPath>
VHL_maps/

> <NAME_>
VHL_5EKO_2.pdb

$$$$
