VHL_6VS3_10.pdb
  MOLSOFT 04032206433D

 65 67  0  0  1  0  0  0  0  0999 V2000
   18.0669   -6.8522   -5.0894 C   0  0  0  0  0  0  0  0  0  0  0  0
   16.8777   -5.9373   -4.9843 C   0  0  0  0  0  0  0  0  0  0  0  0
   15.8024   -6.2540   -5.4627 O   0  0  0  0  0  0  0  0  0  0  0  0
   17.1313   -4.7756   -4.2827 N   0  0  0  0  0  0  0  0  0  0  0  0
   16.1520   -3.6998   -4.0566 C   0  0  1  0  0  0  0  0  0  0  0  0
   15.8724   -3.4741   -2.5422 C   0  0  0  0  0  0  0  0  0  0  0  0
   15.3495   -4.7918   -1.9650 C   0  0  0  0  0  0  0  0  0  0  0  0
   17.1257   -3.0357   -1.7716 C   0  0  0  0  0  0  0  0  0  0  0  0
   14.7892   -2.4216   -2.2815 C   0  0  0  0  0  0  0  0  0  0  0  0
   16.7260   -2.4981   -4.8270 C   0  0  0  0  0  0  0  0  0  0  0  0
   17.9332   -2.2886   -4.8523 O   0  0  0  0  0  0  0  0  0  0  0  0
   15.8351   -1.6779   -5.5227 N   0  0  0  0  0  0  0  0  0  0  0  0
   16.3264   -0.7541   -6.5281 C   0  0  2  0  0  0  0  0  0  0  0  0
   16.8569    0.5254   -5.8816 C   0  0  0  0  0  0  0  0  0  0  0  0
   16.3866    0.9943   -4.8535 O   0  0  0  0  0  0  0  0  0  0  0  0
   17.8834    1.1117   -6.5987 N   0  0  0  0  0  0  0  0  0  0  0  0
   18.5461    2.3228   -6.1609 C   0  0  0  0  0  0  0  0  0  0  0  0
   17.9062    3.5592   -6.7363 C   0  0  0  0  0  0  0  0  0  0  0  0
   18.5418    4.3033   -7.7248 C   0  0  0  0  0  0  0  0  0  0  0  0
   17.9448    5.4380   -8.2502 C   0  0  0  0  0  0  0  0  0  0  0  0
   16.6943    5.8588   -7.8028 C   0  0  0  0  0  0  0  0  0  0  0  0
   16.0522    7.0536   -8.3358 C   0  0  0  0  0  0  0  0  0  0  0  0
   14.7542    7.2572   -8.7881 C   0  0  0  0  0  0  0  0  0  0  0  0
   13.6709    6.2542   -8.8962 C   0  0  0  0  0  0  0  0  0  0  0  0
   14.4678    8.5479   -9.1737 N   0  0  0  0  0  0  0  0  0  0  0  0
   15.5394    9.2979   -9.0505 C   0  0  0  0  0  0  0  0  0  0  0  0
   16.9317    8.5300   -8.4388 S   0  0  0  0  0  0  0  0  0  0  0  0
   16.0625    5.1128   -6.8153 C   0  0  0  0  0  0  0  0  0  0  0  0
   16.6604    3.9850   -6.2889 C   0  0  0  0  0  0  0  0  0  0  0  0
   15.1235   -0.4988   -7.4225 C   0  0  0  0  0  0  0  0  0  0  0  0
   13.9309   -0.6258   -6.4858 C   0  0  1  0  0  0  0  0  0  0  0  0
   12.7850   -1.1517   -7.1518 O   0  0  0  0  0  0  0  0  0  0  0  0
   14.3896   -1.6002   -5.4138 C   0  0  0  0  0  0  0  0  0  0  0  0
   18.9769   -6.2485   -5.1231 H   0  0  0  0  0  0  0  0  0  0  0  0
   18.0047   -7.4786   -5.9844 H   0  0  0  0  0  0  0  0  0  0  0  0
   18.1011   -7.5058   -4.2128 H   0  0  0  0  0  0  0  0  0  0  0  0
   18.0903   -4.5996   -4.0030 H   0  0  0  0  0  0  0  0  0  0  0  0
   15.2202   -4.0095   -4.5292 H   0  0  0  0  0  0  0  0  0  0  0  0
   15.0816   -4.6765   -0.9133 H   0  0  0  0  0  0  0  0  0  0  0  0
   16.0929   -5.5875   -2.0393 H   0  0  0  0  0  0  0  0  0  0  0  0
   14.4547   -5.1364   -2.4934 H   0  0  0  0  0  0  0  0  0  0  0  0
   16.9222   -2.9377   -0.7002 H   0  0  0  0  0  0  0  0  0  0  0  0
   17.4992   -2.0677   -2.1200 H   0  0  0  0  0  0  0  0  0  0  0  0
   17.9354   -3.7539   -1.8750 H   0  0  0  0  0  0  0  0  0  0  0  0
   15.1177   -1.4221   -2.5790 H   0  0  0  0  0  0  0  0  0  0  0  0
   14.5425   -2.3590   -1.2164 H   0  0  0  0  0  0  0  0  0  0  0  0
   13.8600   -2.6660   -2.8050 H   0  0  0  0  0  0  0  0  0  0  0  0
   17.1350   -1.2266   -7.0926 H   0  0  0  0  0  0  0  0  0  0  0  0
   18.2363    0.6529   -7.4326 H   0  0  0  0  0  0  0  0  0  0  0  0
   18.5416    2.3721   -5.0664 H   0  0  0  0  0  0  0  0  0  0  0  0
   19.5922    2.2461   -6.4757 H   0  0  0  0  0  0  0  0  0  0  0  0
   19.5180    4.0039   -8.0954 H   0  0  0  0  0  0  0  0  0  0  0  0
   18.4684    5.9904   -9.0257 H   0  0  0  0  0  0  0  0  0  0  0  0
   12.9206    6.5489   -9.6359 H   0  0  0  0  0  0  0  0  0  0  0  0
   13.1567    6.1349   -7.9397 H   0  0  0  0  0  0  0  0  0  0  0  0
   14.0790    5.2810   -9.1798 H   0  0  0  0  0  0  0  0  0  0  0  0
   15.5497   10.3448   -9.3155 H   0  0  0  0  0  0  0  0  0  0  0  0
   15.0946    5.4157   -6.4262 H   0  0  0  0  0  0  0  0  0  0  0  0
   16.1397    3.4384   -5.5088 H   0  0  0  0  0  0  0  0  0  0  0  0
   15.1499    0.4750   -7.9227 H   0  0  0  0  0  0  0  0  0  0  0  0
   15.0702   -1.2630   -8.2058 H   0  0  0  0  0  0  0  0  0  0  0  0
   13.6671    0.3420   -6.0441 H   0  0  0  0  0  0  0  0  0  0  0  0
   12.5376   -0.5377   -7.8663 H   0  0  0  0  0  0  0  0  0  0  0  0
   13.9346   -2.5884   -5.4887 H   0  0  0  0  0  0  0  0  0  0  0  0
   14.1290   -1.1886   -4.4400 H   0  0  0  0  0  0  0  0  0  0  0  0
  1 34  1  0  0  0  0
  1 35  1  0  0  0  0
  1 36  1  0  0  0  0
  1  2  1  0  0  0  0
  2  3  2  0  0  0  0
  2  4  1  0  0  0  0
  4 37  1  0  0  0  0
  5  4  1  0  0  0  0
  5 38  1  0  0  0  0
  5  6  1  0  0  0  0
  5 10  1  0  0  0  0
  6  7  1  0  0  0  0
  6  8  1  0  0  0  0
  6  9  1  0  0  0  0
  7 39  1  0  0  0  0
  7 40  1  0  0  0  0
  7 41  1  0  0  0  0
  8 42  1  0  0  0  0
  8 43  1  0  0  0  0
  8 44  1  0  0  0  0
  9 45  1  0  0  0  0
  9 46  1  0  0  0  0
  9 47  1  0  0  0  0
 10 11  2  0  0  0  0
 10 12  1  0  0  0  0
 12 33  1  0  0  0  0
 13 12  1  0  0  0  0
 13 30  1  0  0  0  0
 13 48  1  0  0  0  0
 13 14  1  0  0  0  0
 14 15  2  0  0  0  0
 14 16  1  0  0  0  0
 16 49  1  0  0  0  0
 16 17  1  0  0  0  0
 17 50  1  0  0  0  0
 17 51  1  0  0  0  0
 17 18  1  0  0  0  0
 18 19  1  0  0  0  0
 18 29  2  0  0  0  0
 19 52  1  0  0  0  0
 19 20  2  0  0  0  0
 20 53  1  0  0  0  0
 20 21  1  0  0  0  0
 21 28  2  0  0  0  0
 21 22  1  0  0  0  0
 22 23  2  0  0  0  0
 22 27  1  0  0  0  0
 23 24  1  0  0  0  0
 23 25  1  0  0  0  0
 24 54  1  0  0  0  0
 24 55  1  0  0  0  0
 24 56  1  0  0  0  0
 25 26  2  0  0  0  0
 26 57  1  0  0  0  0
 26 27  1  0  0  0  0
 28 58  1  0  0  0  0
 28 29  1  0  0  0  0
 29 59  1  0  0  0  0
 31 30  1  0  0  0  0
 30 60  1  0  0  0  0
 30 61  1  0  0  0  0
 31 33  1  0  0  0  0
 31 62  1  0  0  0  0
 31 32  1  0  0  0  0
 32 63  1  0  0  0  0
 33 64  1  0  0  0  0
 33 65  1  0  0  0  0
M  ZZC   1 c1
M  ZZC   2 c2
M  ZZC   3 o1
M  ZZC   4 n1
M  ZZC   5 c3
M  ZZC   6 c4
M  ZZC   7 c5
M  ZZC   8 c6
M  ZZC   9 c7
M  ZZC  10 c8
M  ZZC  11 o2
M  ZZC  12 n2
M  ZZC  13 c9
M  ZZC  14 c10
M  ZZC  15 o3
M  ZZC  16 n3
M  ZZC  17 c11
M  ZZC  18 c12
M  ZZC  19 c13
M  ZZC  20 c14
M  ZZC  21 c15
M  ZZC  22 c16
M  ZZC  23 c17
M  ZZC  24 c18
M  ZZC  25 n4
M  ZZC  26 c19
M  ZZC  27 s1
M  ZZC  28 c20
M  ZZC  29 c21
M  ZZC  30 c22
M  ZZC  31 c23
M  ZZC  32 o4
M  ZZC  33 c24
M  ZZC  34 h11
M  ZZC  35 h12
M  ZZC  36 h13
M  ZZC  37 h01
M  ZZC  38 h31
M  ZZC  39 h51
M  ZZC  40 h52
M  ZZC  41 h53
M  ZZC  42 h61
M  ZZC  43 h62
M  ZZC  44 h63
M  ZZC  45 h71
M  ZZC  46 h72
M  ZZC  47 h73
M  ZZC  48 h91
M  ZZC  49 h02
M  ZZC  50 h111
M  ZZC  51 h112
M  ZZC  52 h131
M  ZZC  53 h141
M  ZZC  54 h181
M  ZZC  55 h182
M  ZZC  56 h183
M  ZZC  57 h191
M  ZZC  58 h201
M  ZZC  59 h211
M  ZZC  60 h221
M  ZZC  61 h222
M  ZZC  62 h231
M  ZZC  63 h41
M  ZZC  64 h241
M  ZZC  65 h242
M  ZZM   1 1
M  ZZI   1 111
M  ZZM   2 3
M  ZZI   2 121
M  ZZM   3 7
M  ZZI   3 81
M  ZZM   4 10
M  ZZI   4 211
M  ZZM   5 1
M  ZZI   5 113
M  ZZM   6 1
M  ZZI   6 110
M  ZZM   7 1
M  ZZI   7 111
M  ZZM   8 1
M  ZZI   8 111
M  ZZM   9 1
M  ZZI   9 111
M  ZZM  10 3
M  ZZI  10 121
M  ZZM  11 7
M  ZZI  11 81
M  ZZM  12 10
M  ZZI  12 192
M  ZZM  13 1
M  ZZI  13 113
M  ZZM  14 3
M  ZZI  14 121
M  ZZM  15 7
M  ZZI  15 81
M  ZZM  16 10
M  ZZI  16 211
M  ZZM  17 1
M  ZZI  17 112
M  ZZM  18 37
M  ZZI  18 124
M  ZZM  19 37
M  ZZI  19 125
M  ZZM  20 37
M  ZZI  20 125
M  ZZM  21 37
M  ZZI  21 124
M  ZZM  22 63
M  ZZI  22 104
M  ZZM  23 64
M  ZZI  23 105
M  ZZM  24 1
M  ZZI  24 111
M  ZZM  25 66
M  ZZI  25 222
M  ZZM  26 63
M  ZZI  26 104
M  ZZM  27 44
M  ZZI  27 248
M  ZZM  28 37
M  ZZI  28 125
M  ZZM  29 37
M  ZZI  29 125
M  ZZM  30 1
M  ZZI  30 112
M  ZZM  31 1
M  ZZI  31 113
M  ZZM  32 6
M  ZZI  32 60
M  ZZM  33 1
M  ZZI  33 112
M  ZZM  34 5
M  ZZI  34 1
M  ZZM  35 5
M  ZZI  35 1
M  ZZM  36 5
M  ZZI  36 1
M  ZZM  37 28
M  ZZI  37 11
M  ZZM  38 5
M  ZZI  38 1
M  ZZM  39 5
M  ZZI  39 1
M  ZZM  40 5
M  ZZI  40 1
M  ZZM  41 5
M  ZZI  41 1
M  ZZM  42 5
M  ZZI  42 1
M  ZZM  43 5
M  ZZI  43 1
M  ZZM  44 5
M  ZZI  44 1
M  ZZM  45 5
M  ZZI  45 1
M  ZZM  46 5
M  ZZI  46 1
M  ZZM  47 5
M  ZZI  47 1
M  ZZM  48 5
M  ZZI  48 1
M  ZZM  49 28
M  ZZI  49 11
M  ZZM  50 5
M  ZZI  50 1
M  ZZM  51 5
M  ZZI  51 1
M  ZZM  52 5
M  ZZI  52 1
M  ZZM  53 5
M  ZZI  53 1
M  ZZM  54 5
M  ZZI  54 1
M  ZZM  55 5
M  ZZI  55 1
M  ZZM  56 5
M  ZZI  56 1
M  ZZM  57 5
M  ZZI  57 1
M  ZZM  58 5
M  ZZI  58 1
M  ZZM  59 5
M  ZZI  59 1
M  ZZM  60 5
M  ZZI  60 1
M  ZZM  61 5
M  ZZI  61 1
M  ZZM  62 5
M  ZZI  62 1
M  ZZM  63 21
M  ZZI  63 20
M  ZZM  64 5
M  ZZI  64 1
M  ZZM  65 5
M  ZZI  65 1
M  END
> <IX>
1

> <NAME>
VHL_6VS3_10.pdb

> <Score>
-5.281098

> <Natom>
65

> <Nflex>
8

> <Hbond>
-5.141908

> <Hphob>
-6.468369

> <VwInt>
-27.74508

> <Dsolv>
22.28836

> <SolEl>
21.801642

> <Eintl>
6.502437

> <RecConf>
ND

> <projPath>
VHL_maps/

> <NAME_>
VHL_6VS3_10.pdb

$$$$
