VHL_5T8E_58.pdb
  MOLSOFT 04032206463D

 90 94  0  0  1  0  0  0  0  0999 V2000
   12.9637    8.0663   -6.8552 C   0  0  0  0  0  0  0  0  0  0  0  0
   13.1582    7.3193   -8.1719 C   0  0  0  0  0  0  0  0  0  0  0  0
   14.6243    7.0508   -8.4672 C   0  0  0  0  0  0  0  0  0  0  0  0
   15.2327    6.2574   -7.4038 N   0  0  0  0  0  0  0  0  0  0  0  0
   16.1441    5.2571   -7.7409 C   0  0  0  0  0  0  0  0  0  0  0  0
   16.5340    5.0809   -8.8863 O   0  0  0  0  0  0  0  0  0  0  0  0
   16.6036    4.3564   -6.6084 C   0  0  0  0  0  0  0  0  0  0  0  0
   17.4382    3.1758   -7.1304 C   0  0  2  0  0  0  0  0  0  0  0  0
   17.0248    1.9652   -6.4391 N   0  0  0  0  0  0  0  0  0  0  0  0
   16.1586    1.0691   -7.0397 C   0  0  0  0  0  0  0  0  0  0  0  0
   15.7272    1.2109   -8.1775 O   0  0  0  0  0  0  0  0  0  0  0  0
   15.7994   -0.1342   -6.1606 C   0  0  1  0  0  0  0  0  0  0  0  0
   14.9218    0.2607   -5.0578 N   0  0  0  0  0  0  0  0  0  0  0  0
   15.4149    0.7594   -3.8506 C   0  0  0  0  0  0  0  0  0  0  0  0
   16.6073    0.9900   -3.6910 O   0  0  0  0  0  0  0  0  0  0  0  0
   14.3957    0.9698   -2.7134 C   0  0  1  0  0  0  0  0  0  0  0  0
   14.8613    0.1311   -1.6063 N   0  0  0  0  0  0  0  0  0  0  0  0
   14.0248   -0.7203   -0.9120 C   0  0  0  0  0  0  0  0  0  0  0  0
   12.8235   -0.8328   -1.0993 O   0  0  0  0  0  0  0  0  0  0  0  0
   14.7031   -1.5593    0.1014 C   0  0  0  0  0  0  0  0  0  0  0  0
   15.2417   -2.7811   -0.4170 C   0  0  0  0  0  0  0  0  0  0  0  0
   15.6872   -3.7694   -0.8306 N   0  0  0  0  0  0  0  0  0  0  0  0
   14.1338   -1.5903    1.5080 C   0  0  0  0  0  0  0  0  0  0  0  0
   15.4299   -0.8899    1.2530 C   0  0  0  0  0  0  0  0  0  0  0  0
   14.1938    2.4592   -2.3064 C   0  0  0  0  0  0  0  0  0  0  0  0
   14.0280    3.3469   -3.5479 C   0  0  0  0  0  0  0  0  0  0  0  0
   12.9109    2.5825   -1.4731 C   0  0  0  0  0  0  0  0  0  0  0  0
   15.3621    3.0101   -1.4714 C   0  0  0  0  0  0  0  0  0  0  0  0
   13.5448   -0.1108   -5.3321 C   0  0  0  0  0  0  0  0  0  0  0  0
   13.5479   -0.6676   -6.7430 C   0  0  2  0  0  0  0  0  0  0  0  0
   12.6235   -1.7442   -6.8662 O   0  0  0  0  0  0  0  0  0  0  0  0
   14.9739   -1.1632   -6.9206 C   0  0  0  0  0  0  0  0  0  0  0  0
   18.9508    3.3547   -7.1310 C   0  0  0  0  0  0  0  0  0  0  0  0
   19.5635    4.6078   -7.2031 C   0  0  0  0  0  0  0  0  0  0  0  0
   20.9405    4.7372   -7.2942 C   0  0  0  0  0  0  0  0  0  0  0  0
   21.7594    3.6179   -7.3477 C   0  0  0  0  0  0  0  0  0  0  0  0
   23.2060    3.7482   -7.4581 C   0  0  0  0  0  0  0  0  0  0  0  0
   24.1341    4.2941   -6.5810 C   0  0  0  0  0  0  0  0  0  0  0  0
   23.8600    4.9179   -5.2664 C   0  0  0  0  0  0  0  0  0  0  0  0
   25.4480    4.2195   -6.9987 N   0  0  0  0  0  0  0  0  0  0  0  0
   25.5071    3.6483   -8.1804 C   0  0  0  0  0  0  0  0  0  0  0  0
   24.0165    3.1733   -8.8629 S   0  0  0  0  0  0  0  0  0  0  0  0
   21.1590    2.3679   -7.2952 C   0  0  0  0  0  0  0  0  0  0  0  0
   19.7871    2.2399   -7.1852 C   0  0  0  0  0  0  0  0  0  0  0  0
   14.7846    6.5322   -6.0382 C   0  0  0  0  0  0  0  0  0  0  0  0
   14.1444    7.9067   -5.9079 C   0  0  0  0  0  0  0  0  0  0  0  0
   12.7985    9.1313   -7.0451 H   0  0  0  0  0  0  0  0  0  0  0  0
   12.0557    7.7007   -6.3674 H   0  0  0  0  0  0  0  0  0  0  0  0
   12.6251    6.3635   -8.1242 H   0  0  0  0  0  0  0  0  0  0  0  0
   12.7053    7.8829   -8.9903 H   0  0  0  0  0  0  0  0  0  0  0  0
   14.7197    6.5312   -9.4256 H   0  0  0  0  0  0  0  0  0  0  0  0
   15.1837    7.9890   -8.5520 H   0  0  0  0  0  0  0  0  0  0  0  0
   17.1451    4.9354   -5.8535 H   0  0  0  0  0  0  0  0  0  0  0  0
   15.6926    3.9736   -6.1406 H   0  0  0  0  0  0  0  0  0  0  0  0
   17.1729    3.0172   -8.1738 H   0  0  0  0  0  0  0  0  0  0  0  0
   17.3280    1.8062   -5.4800 H   0  0  0  0  0  0  0  0  0  0  0  0
   16.7290   -0.5704   -5.7756 H   0  0  0  0  0  0  0  0  0  0  0  0
   13.4264    0.5748   -3.0217 H   0  0  0  0  0  0  0  0  0  0  0  0
   15.8517    0.1492   -1.3789 H   0  0  0  0  0  0  0  0  0  0  0  0
   13.2658   -0.9798    1.7311 H   0  0  0  0  0  0  0  0  0  0  0  0
   14.1651   -2.5166    2.0706 H   0  0  0  0  0  0  0  0  0  0  0  0
   16.3330   -1.3470    1.6412 H   0  0  0  0  0  0  0  0  0  0  0  0
   15.4302    0.1922    1.3168 H   0  0  0  0  0  0  0  0  0  0  0  0
   14.9483    3.3888   -4.1335 H   0  0  0  0  0  0  0  0  0  0  0  0
   13.7795    4.3778   -3.2750 H   0  0  0  0  0  0  0  0  0  0  0  0
   13.2319    2.9839   -4.2031 H   0  0  0  0  0  0  0  0  0  0  0  0
   12.7001    3.6272   -1.2298 H   0  0  0  0  0  0  0  0  0  0  0  0
   12.9824    2.0367   -0.5275 H   0  0  0  0  0  0  0  0  0  0  0  0
   12.0408    2.1967   -2.0135 H   0  0  0  0  0  0  0  0  0  0  0  0
   15.4865    2.4658   -0.5302 H   0  0  0  0  0  0  0  0  0  0  0  0
   15.1980    4.0606   -1.2093 H   0  0  0  0  0  0  0  0  0  0  0  0
   16.3108    2.9600   -2.0132 H   0  0  0  0  0  0  0  0  0  0  0  0
   13.2219   -0.8643   -4.6051 H   0  0  0  0  0  0  0  0  0  0  0  0
   12.8889    0.7604   -5.2399 H   0  0  0  0  0  0  0  0  0  0  0  0
   13.3077    0.1069   -7.4804 H   0  0  0  0  0  0  0  0  0  0  0  0
   11.7541   -1.3563   -7.0786 H   0  0  0  0  0  0  0  0  0  0  0  0
   15.2474   -1.2714   -7.9754 H   0  0  0  0  0  0  0  0  0  0  0  0
   15.0888   -2.1538   -6.4654 H   0  0  0  0  0  0  0  0  0  0  0  0
   18.9718    5.5169   -7.2116 H   0  0  0  0  0  0  0  0  0  0  0  0
   21.3716    5.7323   -7.3505 H   0  0  0  0  0  0  0  0  0  0  0  0
   23.2881    5.8422   -5.3869 H   0  0  0  0  0  0  0  0  0  0  0  0
   24.7909    5.1653   -4.7479 H   0  0  0  0  0  0  0  0  0  0  0  0
   23.2941    4.2414   -4.6212 H   0  0  0  0  0  0  0  0  0  0  0  0
   26.4429    3.4855   -8.6955 H   0  0  0  0  0  0  0  0  0  0  0  0
   21.7596    1.4666   -7.3522 H   0  0  0  0  0  0  0  0  0  0  0  0
   19.3724    1.2366   -7.1689 H   0  0  0  0  0  0  0  0  0  0  0  0
   14.0674    5.7515   -5.7620 H   0  0  0  0  0  0  0  0  0  0  0  0
   15.6313    6.4526   -5.3510 H   0  0  0  0  0  0  0  0  0  0  0  0
   14.8912    8.6767   -6.1315 H   0  0  0  0  0  0  0  0  0  0  0  0
   13.8188    8.0804   -4.8773 H   0  0  0  0  0  0  0  0  0  0  0  0
  1 47  1  0  0  0  0
  1 48  1  0  0  0  0
  1  2  1  0  0  0  0
  1 46  1  0  0  0  0
  2 49  1  0  0  0  0
  2 50  1  0  0  0  0
  2  3  1  0  0  0  0
  3 51  1  0  0  0  0
  3 52  1  0  0  0  0
  3  4  1  0  0  0  0
  4 45  1  0  0  0  0
  4  5  1  0  0  0  0
  5  6  2  0  0  0  0
  5  7  1  0  0  0  0
  7 53  1  0  0  0  0
  7 54  1  0  0  0  0
  8  7  1  0  0  0  0
  8 55  1  0  0  0  0
  8 33  1  0  0  0  0
  8  9  1  0  0  0  0
  9 56  1  0  0  0  0
  9 10  1  0  0  0  0
 10 11  2  0  0  0  0
 12 10  1  0  0  0  0
 12 57  1  0  0  0  0
 12 32  1  0  0  0  0
 12 13  1  0  0  0  0
 13 29  1  0  0  0  0
 13 14  1  0  0  0  0
 14 15  2  0  0  0  0
 16 14  1  0  0  0  0
 16 58  1  0  0  0  0
 16 25  1  0  0  0  0
 16 17  1  0  0  0  0
 17 59  1  0  0  0  0
 17 18  1  0  0  0  0
 18 19  2  0  0  0  0
 18 20  1  0  0  0  0
 20 21  1  0  0  0  0
 20 23  1  0  0  0  0
 20 24  1  0  0  0  0
 21 22  3  0  0  0  0
 23 60  1  0  0  0  0
 23 61  1  0  0  0  0
 23 24  1  0  0  0  0
 24 62  1  0  0  0  0
 24 63  1  0  0  0  0
 25 26  1  0  0  0  0
 25 27  1  0  0  0  0
 25 28  1  0  0  0  0
 26 64  1  0  0  0  0
 26 65  1  0  0  0  0
 26 66  1  0  0  0  0
 27 67  1  0  0  0  0
 27 68  1  0  0  0  0
 27 69  1  0  0  0  0
 28 70  1  0  0  0  0
 28 71  1  0  0  0  0
 28 72  1  0  0  0  0
 30 29  1  0  0  0  0
 29 73  1  0  0  0  0
 29 74  1  0  0  0  0
 30 32  1  0  0  0  0
 30 75  1  0  0  0  0
 30 31  1  0  0  0  0
 31 76  1  0  0  0  0
 32 77  1  0  0  0  0
 32 78  1  0  0  0  0
 33 34  1  0  0  0  0
 33 44  2  0  0  0  0
 34 79  1  0  0  0  0
 34 35  2  0  0  0  0
 35 80  1  0  0  0  0
 35 36  1  0  0  0  0
 36 43  2  0  0  0  0
 36 37  1  0  0  0  0
 37 38  2  0  0  0  0
 37 42  1  0  0  0  0
 38 39  1  0  0  0  0
 38 40  1  0  0  0  0
 39 81  1  0  0  0  0
 39 82  1  0  0  0  0
 39 83  1  0  0  0  0
 40 41  2  0  0  0  0
 41 84  1  0  0  0  0
 41 42  1  0  0  0  0
 43 85  1  0  0  0  0
 43 44  1  0  0  0  0
 44 86  1  0  0  0  0
 45 87  1  0  0  0  0
 45 88  1  0  0  0  0
 45 46  1  0  0  0  0
 46 89  1  0  0  0  0
 46 90  1  0  0  0  0
M  ZZC   1 c1
M  ZZC   2 c2
M  ZZC   3 c3
M  ZZC   4 n1
M  ZZC   5 c4
M  ZZC   6 o1
M  ZZC   7 c5
M  ZZC   8 c6
M  ZZC   9 n2
M  ZZC  10 c7
M  ZZC  11 o2
M  ZZC  12 c8
M  ZZC  13 n3
M  ZZC  14 c9
M  ZZC  15 o3
M  ZZC  16 c10
M  ZZC  17 n4
M  ZZC  18 c11
M  ZZC  19 o4
M  ZZC  20 c12
M  ZZC  21 c13
M  ZZC  22 n5
M  ZZC  23 c14
M  ZZC  24 c15
M  ZZC  25 c16
M  ZZC  26 c17
M  ZZC  27 c18
M  ZZC  28 c19
M  ZZC  29 c20
M  ZZC  30 c21
M  ZZC  31 o5
M  ZZC  32 c22
M  ZZC  33 c23
M  ZZC  34 c24
M  ZZC  35 c25
M  ZZC  36 c26
M  ZZC  37 c27
M  ZZC  38 c28
M  ZZC  39 c29
M  ZZC  40 n6
M  ZZC  41 c30
M  ZZC  42 s1
M  ZZC  43 c31
M  ZZC  44 c32
M  ZZC  45 c33
M  ZZC  46 c34
M  ZZC  47 h11
M  ZZC  48 h12
M  ZZC  49 h21
M  ZZC  50 h22
M  ZZC  51 h31
M  ZZC  52 h32
M  ZZC  53 h51
M  ZZC  54 h52
M  ZZC  55 h61
M  ZZC  56 h01
M  ZZC  57 h81
M  ZZC  58 h101
M  ZZC  59 h41
M  ZZC  60 h141
M  ZZC  61 h142
M  ZZC  62 h151
M  ZZC  63 h152
M  ZZC  64 h171
M  ZZC  65 h172
M  ZZC  66 h173
M  ZZC  67 h181
M  ZZC  68 h182
M  ZZC  69 h183
M  ZZC  70 h191
M  ZZC  71 h192
M  ZZC  72 h193
M  ZZC  73 h201
M  ZZC  74 h202
M  ZZC  75 h211
M  ZZC  76 h02
M  ZZC  77 h221
M  ZZC  78 h222
M  ZZC  79 h241
M  ZZC  80 h251
M  ZZC  81 h291
M  ZZC  82 h292
M  ZZC  83 h293
M  ZZC  84 h301
M  ZZC  85 h311
M  ZZC  86 h321
M  ZZC  87 h331
M  ZZC  88 h332
M  ZZC  89 h341
M  ZZC  90 h342
M  ZZM   1 1
M  ZZI   1 112
M  ZZM   2 1
M  ZZI   2 112
M  ZZM   3 1
M  ZZI   3 112
M  ZZM   4 10
M  ZZI   4 192
M  ZZM   5 3
M  ZZI   5 121
M  ZZM   6 7
M  ZZI   6 81
M  ZZM   7 1
M  ZZI   7 112
M  ZZM   8 1
M  ZZI   8 113
M  ZZM   9 10
M  ZZI   9 211
M  ZZM  10 3
M  ZZI  10 121
M  ZZM  11 7
M  ZZI  11 81
M  ZZM  12 1
M  ZZI  12 113
M  ZZM  13 10
M  ZZI  13 192
M  ZZM  14 3
M  ZZI  14 121
M  ZZM  15 7
M  ZZI  15 81
M  ZZM  16 1
M  ZZI  16 113
M  ZZM  17 10
M  ZZI  17 211
M  ZZM  18 3
M  ZZI  18 121
M  ZZM  19 7
M  ZZI  19 81
M  ZZM  20 22
M  ZZI  20 109
M  ZZM  21 4
M  ZZI  21 130
M  ZZM  22 42
M  ZZI  22 225
M  ZZM  23 22
M  ZZI  23 109
M  ZZM  24 22
M  ZZI  24 109
M  ZZM  25 1
M  ZZI  25 110
M  ZZM  26 1
M  ZZI  26 111
M  ZZM  27 1
M  ZZI  27 111
M  ZZM  28 1
M  ZZI  28 111
M  ZZM  29 1
M  ZZI  29 112
M  ZZM  30 1
M  ZZI  30 113
M  ZZM  31 6
M  ZZI  31 60
M  ZZM  32 1
M  ZZI  32 112
M  ZZM  33 37
M  ZZI  33 124
M  ZZM  34 37
M  ZZI  34 125
M  ZZM  35 37
M  ZZI  35 125
M  ZZM  36 37
M  ZZI  36 124
M  ZZM  37 63
M  ZZI  37 104
M  ZZM  38 64
M  ZZI  38 105
M  ZZM  39 1
M  ZZI  39 111
M  ZZM  40 66
M  ZZI  40 222
M  ZZM  41 63
M  ZZI  41 104
M  ZZM  42 44
M  ZZI  42 248
M  ZZM  43 37
M  ZZI  43 125
M  ZZM  44 37
M  ZZI  44 125
M  ZZM  45 1
M  ZZI  45 112
M  ZZM  46 1
M  ZZI  46 112
M  ZZM  47 5
M  ZZI  47 1
M  ZZM  48 5
M  ZZI  48 1
M  ZZM  49 5
M  ZZI  49 1
M  ZZM  50 5
M  ZZI  50 1
M  ZZM  51 5
M  ZZI  51 1
M  ZZM  52 5
M  ZZI  52 1
M  ZZM  53 5
M  ZZI  53 1
M  ZZM  54 5
M  ZZI  54 1
M  ZZM  55 5
M  ZZI  55 1
M  ZZM  56 28
M  ZZI  56 11
M  ZZM  57 5
M  ZZI  57 1
M  ZZM  58 5
M  ZZI  58 1
M  ZZM  59 28
M  ZZI  59 11
M  ZZM  60 5
M  ZZI  60 1
M  ZZM  61 5
M  ZZI  61 1
M  ZZM  62 5
M  ZZI  62 1
M  ZZM  63 5
M  ZZI  63 1
M  ZZM  64 5
M  ZZI  64 1
M  ZZM  65 5
M  ZZI  65 1
M  ZZM  66 5
M  ZZI  66 1
M  ZZM  67 5
M  ZZI  67 1
M  ZZM  68 5
M  ZZI  68 1
M  ZZM  69 5
M  ZZI  69 1
M  ZZM  70 5
M  ZZI  70 1
M  ZZM  71 5
M  ZZI  71 1
M  ZZM  72 5
M  ZZI  72 1
M  ZZM  73 5
M  ZZI  73 1
M  ZZM  74 5
M  ZZI  74 1
M  ZZM  75 5
M  ZZI  75 1
M  ZZM  76 21
M  ZZI  76 20
M  ZZM  77 5
M  ZZI  77 1
M  ZZM  78 5
M  ZZI  78 1
M  ZZM  79 5
M  ZZI  79 1
M  ZZM  80 5
M  ZZI  80 1
M  ZZM  81 5
M  ZZI  81 1
M  ZZM  82 5
M  ZZI  82 1
M  ZZM  83 5
M  ZZI  83 1
M  ZZM  84 5
M  ZZI  84 1
M  ZZM  85 5
M  ZZI  85 1
M  ZZM  86 5
M  ZZI  86 1
M  ZZM  87 5
M  ZZI  87 1
M  ZZM  88 5
M  ZZI  88 1
M  ZZM  89 5
M  ZZI  89 1
M  ZZM  90 5
M  ZZI  90 1
M  END
> <IX>
1

> <NAME>
VHL_5T8E_58.pdb

> <Score>
-12.314767

> <Natom>
90

> <Nflex>
12

> <Hbond>
-4.589192

> <Hphob>
-7.856131

> <VwInt>
-33.887433

> <Dsolv>
19.76011

> <SolEl>
14.126372

> <Eintl>
11.839068

> <RecConf>
ND

> <projPath>
VHL_maps/

> <NAME_>
VHL_5T8E_58.pdb

$$$$
