VHL_2EUF_20.pdb
  MOLSOFT 04032206363D

 65 67  0  0  1  0  0  0  0  0999 V2000
   19.1427    0.2300   -5.3951 O   0  0  0  0  0  0  0  0  0  0  0  0
   18.3055    0.9558   -4.8826 C   0  0  0  0  0  0  0  0  0  0  0  0
   16.9609    0.6693   -4.7843 N   0  0  0  0  0  0  0  0  0  0  0  0
   16.3455   -0.5409   -5.3350 C   0  0  2  0  0  0  0  0  0  0  0  0
   15.3044   -0.1916   -6.4419 C   0  0  0  0  0  0  0  0  0  0  0  0
   16.0309    0.3872   -7.6670 C   0  0  0  0  0  0  0  0  0  0  0  0
   14.2506    0.8343   -5.9793 C   0  0  0  0  0  0  0  0  0  0  0  0
   14.5598   -1.4478   -6.8938 C   0  0  0  0  0  0  0  0  0  0  0  0
   15.7436   -1.2743   -4.1210 C   0  0  0  0  0  0  0  0  0  0  0  0
   15.0560   -0.6732   -3.3044 O   0  0  0  0  0  0  0  0  0  0  0  0
   16.0190   -2.6361   -3.9678 N   0  0  0  0  0  0  0  0  0  0  0  0
   15.5351   -3.3594   -2.8016 C   0  0  2  0  0  0  0  0  0  0  0  0
   16.4382   -3.0826   -1.5973 C   0  0  0  0  0  0  0  0  0  0  0  0
   17.6378   -2.8641   -1.6974 O   0  0  0  0  0  0  0  0  0  0  0  0
   15.7842   -3.1521   -0.3836 N   0  0  0  0  0  0  0  0  0  0  0  0
   16.4904   -2.8699    0.8498 C   0  0  0  0  0  0  0  0  0  0  0  0
   15.6121   -3.0235    2.0624 C   0  0  0  0  0  0  0  0  0  0  0  0
   15.8714   -4.0135    3.0034 C   0  0  0  0  0  0  0  0  0  0  0  0
   15.0562   -4.1665    4.1111 C   0  0  0  0  0  0  0  0  0  0  0  0
   13.9640   -3.3300    4.3125 C   0  0  0  0  0  0  0  0  0  0  0  0
   13.1078   -3.5115    5.4762 C   0  0  0  0  0  0  0  0  0  0  0  0
   12.3962   -4.6235    5.9087 C   0  0  0  0  0  0  0  0  0  0  0  0
   12.2966   -5.9386    5.2336 C   0  0  0  0  0  0  0  0  0  0  0  0
   11.7088   -4.4522    7.0939 N   0  0  0  0  0  0  0  0  0  0  0  0
   11.8891   -3.2286    7.5377 C   0  0  0  0  0  0  0  0  0  0  0  0
   12.8809   -2.2164    6.5856 S   0  0  0  0  0  0  0  0  0  0  0  0
   13.7140   -2.3269    3.3807 C   0  0  0  0  0  0  0  0  0  0  0  0
   14.5274   -2.1767    2.2710 C   0  0  0  0  0  0  0  0  0  0  0  0
   15.6019   -4.8211   -3.2005 C   0  0  0  0  0  0  0  0  0  0  0  0
   16.7512   -4.8898   -4.1956 C   0  0  1  0  0  0  0  0  0  0  0  0
   16.5266   -5.9327   -5.1473 O   0  0  0  0  0  0  0  0  0  0  0  0
   16.7806   -3.5089   -4.8484 C   0  0  0  0  0  0  0  0  0  0  0  0
   18.6768    2.2634   -4.2364 C   0  0  0  0  0  0  0  0  0  0  0  0
   16.3717    1.2878   -4.2353 H   0  0  0  0  0  0  0  0  0  0  0  0
   17.1408   -1.1533   -5.7687 H   0  0  0  0  0  0  0  0  0  0  0  0
   16.7689   -0.3164   -8.0652 H   0  0  0  0  0  0  0  0  0  0  0  0
   16.5554    1.3176   -7.4299 H   0  0  0  0  0  0  0  0  0  0  0  0
   15.3309    0.6121   -8.4771 H   0  0  0  0  0  0  0  0  0  0  0  0
   14.7010    1.7853   -5.6802 H   0  0  0  0  0  0  0  0  0  0  0  0
   13.6588    0.4641   -5.1373 H   0  0  0  0  0  0  0  0  0  0  0  0
   13.5431    1.0635   -6.7834 H   0  0  0  0  0  0  0  0  0  0  0  0
   13.8224   -1.1999   -7.6601 H   0  0  0  0  0  0  0  0  0  0  0  0
   14.0160   -1.9106   -6.0653 H   0  0  0  0  0  0  0  0  0  0  0  0
   15.2382   -2.1918   -7.3215 H   0  0  0  0  0  0  0  0  0  0  0  0
   14.5093   -3.0506   -2.5670 H   0  0  0  0  0  0  0  0  0  0  0  0
   14.7910   -3.3537   -0.3461 H   0  0  0  0  0  0  0  0  0  0  0  0
   17.3567   -3.5393    0.9022 H   0  0  0  0  0  0  0  0  0  0  0  0
   16.8835   -1.8486    0.7978 H   0  0  0  0  0  0  0  0  0  0  0  0
   16.7157   -4.6858    2.8782 H   0  0  0  0  0  0  0  0  0  0  0  0
   15.2880   -4.9513    4.8255 H   0  0  0  0  0  0  0  0  0  0  0  0
   11.4492   -6.5140    5.6173 H   0  0  0  0  0  0  0  0  0  0  0  0
   13.2048   -6.5266    5.3952 H   0  0  0  0  0  0  0  0  0  0  0  0
   12.1479   -5.8161    4.1575 H   0  0  0  0  0  0  0  0  0  0  0  0
   11.4374   -2.8743    8.4532 H   0  0  0  0  0  0  0  0  0  0  0  0
   12.8700   -1.6538    3.5034 H   0  0  0  0  0  0  0  0  0  0  0  0
   14.3047   -1.3865    1.5593 H   0  0  0  0  0  0  0  0  0  0  0  0
   15.7519   -5.4996   -2.3550 H   0  0  0  0  0  0  0  0  0  0  0  0
   14.6672   -5.1200   -3.6796 H   0  0  0  0  0  0  0  0  0  0  0  0
   17.6979   -5.0875   -3.6881 H   0  0  0  0  0  0  0  0  0  0  0  0
   16.3940   -6.7618   -4.6505 H   0  0  0  0  0  0  0  0  0  0  0  0
   16.3417   -3.5014   -5.8480 H   0  0  0  0  0  0  0  0  0  0  0  0
   17.8052   -3.1317   -4.9299 H   0  0  0  0  0  0  0  0  0  0  0  0
   19.5782    2.6626   -4.7105 H   0  0  0  0  0  0  0  0  0  0  0  0
   18.8680    2.0991   -3.1719 H   0  0  0  0  0  0  0  0  0  0  0  0
   17.8726    2.9963   -4.3536 H   0  0  0  0  0  0  0  0  0  0  0  0
  1  2  2  0  0  0  0
  2  3  1  0  0  0  0
  2 33  1  0  0  0  0
  4  3  1  0  0  0  0
  3 34  1  0  0  0  0
  4  5  1  0  0  0  0
  4 35  1  0  0  0  0
  4  9  1  0  0  0  0
  5  6  1  0  0  0  0
  5  7  1  0  0  0  0
  5  8  1  0  0  0  0
  6 36  1  0  0  0  0
  6 37  1  0  0  0  0
  6 38  1  0  0  0  0
  7 39  1  0  0  0  0
  7 40  1  0  0  0  0
  7 41  1  0  0  0  0
  8 42  1  0  0  0  0
  8 43  1  0  0  0  0
  8 44  1  0  0  0  0
  9 10  2  0  0  0  0
  9 11  1  0  0  0  0
 11 32  1  0  0  0  0
 12 11  1  0  0  0  0
 12 29  1  0  0  0  0
 12 45  1  0  0  0  0
 12 13  1  0  0  0  0
 13 14  2  0  0  0  0
 13 15  1  0  0  0  0
 15 46  1  0  0  0  0
 15 16  1  0  0  0  0
 16 47  1  0  0  0  0
 16 48  1  0  0  0  0
 16 17  1  0  0  0  0
 17 18  1  0  0  0  0
 17 28  2  0  0  0  0
 18 49  1  0  0  0  0
 18 19  2  0  0  0  0
 19 50  1  0  0  0  0
 19 20  1  0  0  0  0
 20 27  2  0  0  0  0
 20 21  1  0  0  0  0
 21 22  2  0  0  0  0
 21 26  1  0  0  0  0
 22 23  1  0  0  0  0
 22 24  1  0  0  0  0
 23 51  1  0  0  0  0
 23 52  1  0  0  0  0
 23 53  1  0  0  0  0
 24 25  2  0  0  0  0
 25 54  1  0  0  0  0
 25 26  1  0  0  0  0
 27 55  1  0  0  0  0
 27 28  1  0  0  0  0
 28 56  1  0  0  0  0
 30 29  1  0  0  0  0
 29 57  1  0  0  0  0
 29 58  1  0  0  0  0
 30 32  1  0  0  0  0
 30 59  1  0  0  0  0
 30 31  1  0  0  0  0
 31 60  1  0  0  0  0
 32 61  1  0  0  0  0
 32 62  1  0  0  0  0
 33 63  1  0  0  0  0
 33 64  1  0  0  0  0
 33 65  1  0  0  0  0
M  ZZC   1 o1
M  ZZC   2 c1
M  ZZC   3 n1
M  ZZC   4 c2
M  ZZC   5 c3
M  ZZC   6 c4
M  ZZC   7 c5
M  ZZC   8 c6
M  ZZC   9 c7
M  ZZC  10 o2
M  ZZC  11 n2
M  ZZC  12 c8
M  ZZC  13 c9
M  ZZC  14 o3
M  ZZC  15 n3
M  ZZC  16 c10
M  ZZC  17 c11
M  ZZC  18 c12
M  ZZC  19 c13
M  ZZC  20 c14
M  ZZC  21 c15
M  ZZC  22 c16
M  ZZC  23 c17
M  ZZC  24 n4
M  ZZC  25 c18
M  ZZC  26 s1
M  ZZC  27 c19
M  ZZC  28 c20
M  ZZC  29 c21
M  ZZC  30 c22
M  ZZC  31 o4
M  ZZC  32 c23
M  ZZC  33 c24
M  ZZC  34 h11
M  ZZC  35 h21
M  ZZC  36 h41
M  ZZC  37 h42
M  ZZC  38 h43
M  ZZC  39 h51
M  ZZC  40 h52
M  ZZC  41 h53
M  ZZC  42 h61
M  ZZC  43 h62
M  ZZC  44 h63
M  ZZC  45 h81
M  ZZC  46 h31
M  ZZC  47 h101
M  ZZC  48 h102
M  ZZC  49 h121
M  ZZC  50 h131
M  ZZC  51 h171
M  ZZC  52 h172
M  ZZC  53 h173
M  ZZC  54 h181
M  ZZC  55 h191
M  ZZC  56 h201
M  ZZC  57 h211
M  ZZC  58 h212
M  ZZC  59 h221
M  ZZC  60 h01
M  ZZC  61 h231
M  ZZC  62 h232
M  ZZC  63 h241
M  ZZC  64 h242
M  ZZC  65 h243
M  ZZM   1 7
M  ZZI   1 81
M  ZZM   2 3
M  ZZI   2 121
M  ZZM   3 10
M  ZZI   3 211
M  ZZM   4 1
M  ZZI   4 113
M  ZZM   5 1
M  ZZI   5 110
M  ZZM   6 1
M  ZZI   6 111
M  ZZM   7 1
M  ZZI   7 111
M  ZZM   8 1
M  ZZI   8 111
M  ZZM   9 3
M  ZZI   9 121
M  ZZM  10 7
M  ZZI  10 81
M  ZZM  11 10
M  ZZI  11 192
M  ZZM  12 1
M  ZZI  12 113
M  ZZM  13 3
M  ZZI  13 121
M  ZZM  14 7
M  ZZI  14 81
M  ZZM  15 10
M  ZZI  15 211
M  ZZM  16 1
M  ZZI  16 112
M  ZZM  17 37
M  ZZI  17 124
M  ZZM  18 37
M  ZZI  18 125
M  ZZM  19 37
M  ZZI  19 125
M  ZZM  20 37
M  ZZI  20 124
M  ZZM  21 63
M  ZZI  21 104
M  ZZM  22 64
M  ZZI  22 105
M  ZZM  23 1
M  ZZI  23 111
M  ZZM  24 66
M  ZZI  24 222
M  ZZM  25 63
M  ZZI  25 104
M  ZZM  26 44
M  ZZI  26 248
M  ZZM  27 37
M  ZZI  27 125
M  ZZM  28 37
M  ZZI  28 125
M  ZZM  29 1
M  ZZI  29 112
M  ZZM  30 1
M  ZZI  30 113
M  ZZM  31 6
M  ZZI  31 60
M  ZZM  32 1
M  ZZI  32 112
M  ZZM  33 1
M  ZZI  33 111
M  ZZM  34 28
M  ZZI  34 11
M  ZZM  35 5
M  ZZI  35 1
M  ZZM  36 5
M  ZZI  36 1
M  ZZM  37 5
M  ZZI  37 1
M  ZZM  38 5
M  ZZI  38 1
M  ZZM  39 5
M  ZZI  39 1
M  ZZM  40 5
M  ZZI  40 1
M  ZZM  41 5
M  ZZI  41 1
M  ZZM  42 5
M  ZZI  42 1
M  ZZM  43 5
M  ZZI  43 1
M  ZZM  44 5
M  ZZI  44 1
M  ZZM  45 5
M  ZZI  45 1
M  ZZM  46 28
M  ZZI  46 11
M  ZZM  47 5
M  ZZI  47 1
M  ZZM  48 5
M  ZZI  48 1
M  ZZM  49 5
M  ZZI  49 1
M  ZZM  50 5
M  ZZI  50 1
M  ZZM  51 5
M  ZZI  51 1
M  ZZM  52 5
M  ZZI  52 1
M  ZZM  53 5
M  ZZI  53 1
M  ZZM  54 5
M  ZZI  54 1
M  ZZM  55 5
M  ZZI  55 1
M  ZZM  56 5
M  ZZI  56 1
M  ZZM  57 5
M  ZZI  57 1
M  ZZM  58 5
M  ZZI  58 1
M  ZZM  59 5
M  ZZI  59 1
M  ZZM  60 21
M  ZZI  60 20
M  ZZM  61 5
M  ZZI  61 1
M  ZZM  62 5
M  ZZI  62 1
M  ZZM  63 5
M  ZZI  63 1
M  ZZM  64 5
M  ZZI  64 1
M  ZZM  65 5
M  ZZI  65 1
M  END
> <IX>
1

> <NAME>
VHL_2EUF_20.pdb

> <Score>
-16.501405

> <Natom>
65

> <Nflex>
8

> <Hbond>
-4.370427

> <Hphob>
-5.95612

> <VwInt>
-28.381313

> <Dsolv>
16.70931

> <SolEl>
12.191933

> <Eintl>
2.581717

> <RecConf>
ND

> <projPath>
VHL_maps/

> <NAME_>
VHL_2EUF_20.pdb

$$$$
