VHL_2EUF_17.pdb
  MOLSOFT 04032206363D

 65 67  0  0  1  0  0  0  0  0999 V2000
   19.1039    0.2074   -5.3842 O   0  0  0  0  0  0  0  0  0  0  0  0
   18.2836    0.9627   -4.8873 C   0  0  0  0  0  0  0  0  0  0  0  0
   16.9344    0.7028   -4.7727 N   0  0  0  0  0  0  0  0  0  0  0  0
   16.2975   -0.5181   -5.2741 C   0  0  2  0  0  0  0  0  0  0  0  0
   15.2109   -0.1900   -6.3434 C   0  0  0  0  0  0  0  0  0  0  0  0
   14.4698   -1.4598   -6.7640 C   0  0  0  0  0  0  0  0  0  0  0  0
   15.8846    0.3932   -7.5968 C   0  0  0  0  0  0  0  0  0  0  0  0
   14.1590    0.8210   -5.8462 C   0  0  0  0  0  0  0  0  0  0  0  0
   15.7514   -1.2328   -4.0221 C   0  0  0  0  0  0  0  0  0  0  0  0
   15.1064   -0.6186   -3.1809 O   0  0  0  0  0  0  0  0  0  0  0  0
   16.0301   -2.5935   -3.8654 N   0  0  0  0  0  0  0  0  0  0  0  0
   15.6182   -3.3044   -2.6631 C   0  0  2  0  0  0  0  0  0  0  0  0
   16.6106   -3.0307   -1.5265 C   0  0  0  0  0  0  0  0  0  0  0  0
   17.7795   -2.7295   -1.7248 O   0  0  0  0  0  0  0  0  0  0  0  0
   16.0815   -3.1988   -0.2601 N   0  0  0  0  0  0  0  0  0  0  0  0
   16.8684   -2.8981    0.9234 C   0  0  0  0  0  0  0  0  0  0  0  0
   16.3419   -3.5849    2.1562 C   0  0  0  0  0  0  0  0  0  0  0  0
   15.1560   -3.1753    2.7569 C   0  0  0  0  0  0  0  0  0  0  0  0
   14.6502   -3.8458    3.8589 C   0  0  0  0  0  0  0  0  0  0  0  0
   15.3077   -4.9559    4.3902 C   0  0  0  0  0  0  0  0  0  0  0  0
   14.7389   -5.7281    5.4954 C   0  0  0  0  0  0  0  0  0  0  0  0
   15.3302   -6.3079    6.6146 C   0  0  0  0  0  0  0  0  0  0  0  0
   16.7523   -6.2433    7.0253 C   0  0  0  0  0  0  0  0  0  0  0  0
   14.4731   -7.0174    7.4322 N   0  0  0  0  0  0  0  0  0  0  0  0
   13.2544   -6.9716    6.9464 C   0  0  0  0  0  0  0  0  0  0  0  0
   13.0522   -6.0896    5.5014 S   0  0  0  0  0  0  0  0  0  0  0  0
   16.5092   -5.3405    3.8012 C   0  0  0  0  0  0  0  0  0  0  0  0
   17.0220   -4.6642    2.7087 C   0  0  0  0  0  0  0  0  0  0  0  0
   15.6304   -4.7673   -3.0684 C   0  0  0  0  0  0  0  0  0  0  0  0
   16.7296   -4.8536   -4.1183 C   0  0  1  0  0  0  0  0  0  0  0  0
   16.4508   -5.8930   -5.0590 O   0  0  0  0  0  0  0  0  0  0  0  0
   16.7430   -3.4759   -4.7767 C   0  0  0  0  0  0  0  0  0  0  0  0
   18.6849    2.2826   -4.2855 C   0  0  0  0  0  0  0  0  0  0  0  0
   16.3610    1.3442   -4.2336 H   0  0  0  0  0  0  0  0  0  0  0  0
   17.0758   -1.1355   -5.7306 H   0  0  0  0  0  0  0  0  0  0  0  0
   13.9744   -1.9372   -5.9134 H   0  0  0  0  0  0  0  0  0  0  0  0
   15.1426   -2.1869   -7.2283 H   0  0  0  0  0  0  0  0  0  0  0  0
   13.6908   -1.2254   -7.4934 H   0  0  0  0  0  0  0  0  0  0  0  0
   16.6227   -0.2991   -8.0148 H   0  0  0  0  0  0  0  0  0  0  0  0
   16.3983    1.3356   -7.3846 H   0  0  0  0  0  0  0  0  0  0  0  0
   15.1527    0.5982   -8.3840 H   0  0  0  0  0  0  0  0  0  0  0  0
   14.6059    1.7789   -5.5644 H   0  0  0  0  0  0  0  0  0  0  0  0
   13.6023    0.4434   -4.9838 H   0  0  0  0  0  0  0  0  0  0  0  0
   13.4211    1.0381   -6.6259 H   0  0  0  0  0  0  0  0  0  0  0  0
   14.6185   -2.9774   -2.3531 H   0  0  0  0  0  0  0  0  0  0  0  0
   15.1019   -3.4345   -0.1454 H   0  0  0  0  0  0  0  0  0  0  0  0
   17.9126   -3.1755    0.7409 H   0  0  0  0  0  0  0  0  0  0  0  0
   16.8533   -1.8122    1.0654 H   0  0  0  0  0  0  0  0  0  0  0  0
   14.6060   -2.3274    2.3584 H   0  0  0  0  0  0  0  0  0  0  0  0
   13.7192   -3.4922    4.2915 H   0  0  0  0  0  0  0  0  0  0  0  0
   17.3298   -7.0282    6.5297 H   0  0  0  0  0  0  0  0  0  0  0  0
   16.8521   -6.3882    8.1050 H   0  0  0  0  0  0  0  0  0  0  0  0
   17.1990   -5.2758    6.7792 H   0  0  0  0  0  0  0  0  0  0  0  0
   12.4219   -7.4628    7.4296 H   0  0  0  0  0  0  0  0  0  0  0  0
   17.0504   -6.2074    4.1664 H   0  0  0  0  0  0  0  0  0  0  0  0
   17.9525   -5.0117    2.2682 H   0  0  0  0  0  0  0  0  0  0  0  0
   15.8081   -5.4517   -2.2336 H   0  0  0  0  0  0  0  0  0  0  0  0
   14.6670   -5.0460   -3.5053 H   0  0  0  0  0  0  0  0  0  0  0  0
   17.6982   -5.0603   -3.6582 H   0  0  0  0  0  0  0  0  0  0  0  0
   16.3343   -6.7222   -4.5592 H   0  0  0  0  0  0  0  0  0  0  0  0
   16.2606   -3.4684   -5.7558 H   0  0  0  0  0  0  0  0  0  0  0  0
   17.7667   -3.1093   -4.9048 H   0  0  0  0  0  0  0  0  0  0  0  0
   19.5304    2.6954   -4.8436 H   0  0  0  0  0  0  0  0  0  0  0  0
   18.9767    2.1287   -3.2425 H   0  0  0  0  0  0  0  0  0  0  0  0
   17.8604    3.0009   -4.3283 H   0  0  0  0  0  0  0  0  0  0  0  0
  1  2  2  0  0  0  0
  2  3  1  0  0  0  0
  2 33  1  0  0  0  0
  4  3  1  0  0  0  0
  3 34  1  0  0  0  0
  4  5  1  0  0  0  0
  4 35  1  0  0  0  0
  4  9  1  0  0  0  0
  5  6  1  0  0  0  0
  5  7  1  0  0  0  0
  5  8  1  0  0  0  0
  6 36  1  0  0  0  0
  6 37  1  0  0  0  0
  6 38  1  0  0  0  0
  7 39  1  0  0  0  0
  7 40  1  0  0  0  0
  7 41  1  0  0  0  0
  8 42  1  0  0  0  0
  8 43  1  0  0  0  0
  8 44  1  0  0  0  0
  9 10  2  0  0  0  0
  9 11  1  0  0  0  0
 11 32  1  0  0  0  0
 12 11  1  0  0  0  0
 12 29  1  0  0  0  0
 12 45  1  0  0  0  0
 12 13  1  0  0  0  0
 13 14  2  0  0  0  0
 13 15  1  0  0  0  0
 15 46  1  0  0  0  0
 15 16  1  0  0  0  0
 16 47  1  0  0  0  0
 16 48  1  0  0  0  0
 16 17  1  0  0  0  0
 17 18  1  0  0  0  0
 17 28  2  0  0  0  0
 18 49  1  0  0  0  0
 18 19  2  0  0  0  0
 19 50  1  0  0  0  0
 19 20  1  0  0  0  0
 20 27  2  0  0  0  0
 20 21  1  0  0  0  0
 21 22  2  0  0  0  0
 21 26  1  0  0  0  0
 22 23  1  0  0  0  0
 22 24  1  0  0  0  0
 23 51  1  0  0  0  0
 23 52  1  0  0  0  0
 23 53  1  0  0  0  0
 24 25  2  0  0  0  0
 25 54  1  0  0  0  0
 25 26  1  0  0  0  0
 27 55  1  0  0  0  0
 27 28  1  0  0  0  0
 28 56  1  0  0  0  0
 30 29  1  0  0  0  0
 29 57  1  0  0  0  0
 29 58  1  0  0  0  0
 30 32  1  0  0  0  0
 30 59  1  0  0  0  0
 30 31  1  0  0  0  0
 31 60  1  0  0  0  0
 32 61  1  0  0  0  0
 32 62  1  0  0  0  0
 33 63  1  0  0  0  0
 33 64  1  0  0  0  0
 33 65  1  0  0  0  0
M  ZZC   1 o1
M  ZZC   2 c1
M  ZZC   3 n1
M  ZZC   4 c2
M  ZZC   5 c3
M  ZZC   6 c4
M  ZZC   7 c5
M  ZZC   8 c6
M  ZZC   9 c7
M  ZZC  10 o2
M  ZZC  11 n2
M  ZZC  12 c8
M  ZZC  13 c9
M  ZZC  14 o3
M  ZZC  15 n3
M  ZZC  16 c10
M  ZZC  17 c11
M  ZZC  18 c12
M  ZZC  19 c13
M  ZZC  20 c14
M  ZZC  21 c15
M  ZZC  22 c16
M  ZZC  23 c17
M  ZZC  24 n4
M  ZZC  25 c18
M  ZZC  26 s1
M  ZZC  27 c19
M  ZZC  28 c20
M  ZZC  29 c21
M  ZZC  30 c22
M  ZZC  31 o4
M  ZZC  32 c23
M  ZZC  33 c24
M  ZZC  34 h11
M  ZZC  35 h21
M  ZZC  36 h41
M  ZZC  37 h42
M  ZZC  38 h43
M  ZZC  39 h51
M  ZZC  40 h52
M  ZZC  41 h53
M  ZZC  42 h61
M  ZZC  43 h62
M  ZZC  44 h63
M  ZZC  45 h81
M  ZZC  46 h31
M  ZZC  47 h101
M  ZZC  48 h102
M  ZZC  49 h121
M  ZZC  50 h131
M  ZZC  51 h171
M  ZZC  52 h172
M  ZZC  53 h173
M  ZZC  54 h181
M  ZZC  55 h191
M  ZZC  56 h201
M  ZZC  57 h211
M  ZZC  58 h212
M  ZZC  59 h221
M  ZZC  60 h01
M  ZZC  61 h231
M  ZZC  62 h232
M  ZZC  63 h241
M  ZZC  64 h242
M  ZZC  65 h243
M  ZZM   1 7
M  ZZI   1 81
M  ZZM   2 3
M  ZZI   2 121
M  ZZM   3 10
M  ZZI   3 211
M  ZZM   4 1
M  ZZI   4 113
M  ZZM   5 1
M  ZZI   5 110
M  ZZM   6 1
M  ZZI   6 111
M  ZZM   7 1
M  ZZI   7 111
M  ZZM   8 1
M  ZZI   8 111
M  ZZM   9 3
M  ZZI   9 121
M  ZZM  10 7
M  ZZI  10 81
M  ZZM  11 10
M  ZZI  11 192
M  ZZM  12 1
M  ZZI  12 113
M  ZZM  13 3
M  ZZI  13 121
M  ZZM  14 7
M  ZZI  14 81
M  ZZM  15 10
M  ZZI  15 211
M  ZZM  16 1
M  ZZI  16 112
M  ZZM  17 37
M  ZZI  17 124
M  ZZM  18 37
M  ZZI  18 125
M  ZZM  19 37
M  ZZI  19 125
M  ZZM  20 37
M  ZZI  20 124
M  ZZM  21 63
M  ZZI  21 104
M  ZZM  22 64
M  ZZI  22 105
M  ZZM  23 1
M  ZZI  23 111
M  ZZM  24 66
M  ZZI  24 222
M  ZZM  25 63
M  ZZI  25 104
M  ZZM  26 44
M  ZZI  26 248
M  ZZM  27 37
M  ZZI  27 125
M  ZZM  28 37
M  ZZI  28 125
M  ZZM  29 1
M  ZZI  29 112
M  ZZM  30 1
M  ZZI  30 113
M  ZZM  31 6
M  ZZI  31 60
M  ZZM  32 1
M  ZZI  32 112
M  ZZM  33 1
M  ZZI  33 111
M  ZZM  34 28
M  ZZI  34 11
M  ZZM  35 5
M  ZZI  35 1
M  ZZM  36 5
M  ZZI  36 1
M  ZZM  37 5
M  ZZI  37 1
M  ZZM  38 5
M  ZZI  38 1
M  ZZM  39 5
M  ZZI  39 1
M  ZZM  40 5
M  ZZI  40 1
M  ZZM  41 5
M  ZZI  41 1
M  ZZM  42 5
M  ZZI  42 1
M  ZZM  43 5
M  ZZI  43 1
M  ZZM  44 5
M  ZZI  44 1
M  ZZM  45 5
M  ZZI  45 1
M  ZZM  46 28
M  ZZI  46 11
M  ZZM  47 5
M  ZZI  47 1
M  ZZM  48 5
M  ZZI  48 1
M  ZZM  49 5
M  ZZI  49 1
M  ZZM  50 5
M  ZZI  50 1
M  ZZM  51 5
M  ZZI  51 1
M  ZZM  52 5
M  ZZI  52 1
M  ZZM  53 5
M  ZZI  53 1
M  ZZM  54 5
M  ZZI  54 1
M  ZZM  55 5
M  ZZI  55 1
M  ZZM  56 5
M  ZZI  56 1
M  ZZM  57 5
M  ZZI  57 1
M  ZZM  58 5
M  ZZI  58 1
M  ZZM  59 5
M  ZZI  59 1
M  ZZM  60 21
M  ZZI  60 20
M  ZZM  61 5
M  ZZI  61 1
M  ZZM  62 5
M  ZZI  62 1
M  ZZM  63 5
M  ZZI  63 1
M  ZZM  64 5
M  ZZI  64 1
M  ZZM  65 5
M  ZZI  65 1
M  END
> <IX>
1

> <NAME>
VHL_2EUF_17.pdb

> <Score>
-13.141639

> <Natom>
65

> <Nflex>
8

> <Hbond>
-4.371669

> <Hphob>
-5.873558

> <VwInt>
-26.9362

> <Dsolv>
17.407209

> <SolEl>
13.59574

> <Eintl>
3.269284

> <RecConf>
ND

> <projPath>
VHL_maps/

> <NAME_>
VHL_2EUF_17.pdb

$$$$
