VHL_6YOJ_1.pdb
  MOLSOFT 04032206443D

 65 67  0  0  1  0  0  0  0  0999 V2000
   18.1237   -6.6968   -5.1391 C   0  0  0  0  0  0  0  0  0  0  0  0
   16.9123   -5.8173   -4.9898 C   0  0  0  0  0  0  0  0  0  0  0  0
   15.8254   -6.1737   -5.4110 O   0  0  0  0  0  0  0  0  0  0  0  0
   17.1597   -4.6376   -4.3157 N   0  0  0  0  0  0  0  0  0  0  0  0
   16.1543   -3.5967   -4.0460 C   0  0  1  0  0  0  0  0  0  0  0  0
   15.8839   -3.4318   -2.5213 C   0  0  0  0  0  0  0  0  0  0  0  0
   17.1338   -2.9831   -1.7511 C   0  0  0  0  0  0  0  0  0  0  0  0
   15.4058   -4.7821   -1.9730 C   0  0  0  0  0  0  0  0  0  0  0  0
   14.7729   -2.4180   -2.2244 C   0  0  0  0  0  0  0  0  0  0  0  0
   16.6758   -2.3490   -4.7899 C   0  0  0  0  0  0  0  0  0  0  0  0
   17.8740   -2.0942   -4.8207 O   0  0  0  0  0  0  0  0  0  0  0  0
   15.7466   -1.5513   -5.4642 N   0  0  0  0  0  0  0  0  0  0  0  0
   16.1744   -0.6181   -6.4964 C   0  0  2  0  0  0  0  0  0  0  0  0
   16.5767    0.7496   -5.9352 C   0  0  0  0  0  0  0  0  0  0  0  0
   16.0386    1.2497   -4.9566 O   0  0  0  0  0  0  0  0  0  0  0  0
   17.5478    1.3872   -6.6878 N   0  0  0  0  0  0  0  0  0  0  0  0
   17.9972    2.7364   -6.3793 C   0  0  0  0  0  0  0  0  0  0  0  0
   19.4533    3.0270   -6.6712 C   0  0  0  0  0  0  0  0  0  0  0  0
   19.9542    4.3013   -6.4145 C   0  0  0  0  0  0  0  0  0  0  0  0
   21.2923    4.6087   -6.6121 C   0  0  0  0  0  0  0  0  0  0  0  0
   22.1774    3.6484   -7.0868 C   0  0  0  0  0  0  0  0  0  0  0  0
   23.6009    3.9211   -7.2447 C   0  0  0  0  0  0  0  0  0  0  0  0
   24.4190    3.8925   -8.3679 C   0  0  0  0  0  0  0  0  0  0  0  0
   24.0130    3.6337   -9.7666 C   0  0  0  0  0  0  0  0  0  0  0  0
   25.7570    4.1277   -8.1241 N   0  0  0  0  0  0  0  0  0  0  0  0
   25.9423    4.3537   -6.8437 C   0  0  0  0  0  0  0  0  0  0  0  0
   24.5478    4.3063   -5.8599 S   0  0  0  0  0  0  0  0  0  0  0  0
   21.6733    2.3895   -7.3758 C   0  0  0  0  0  0  0  0  0  0  0  0
   20.3436    2.0788   -7.1645 C   0  0  0  0  0  0  0  0  0  0  0  0
   14.9557   -0.5020   -7.3999 C   0  0  0  0  0  0  0  0  0  0  0  0
   13.7800   -0.6421   -6.4434 C   0  0  1  0  0  0  0  0  0  0  0  0
   12.6476   -1.2378   -7.0719 O   0  0  0  0  0  0  0  0  0  0  0  0
   14.2984   -1.5599   -5.3497 C   0  0  0  0  0  0  0  0  0  0  0  0
   19.0372   -6.1006   -5.2243 H   0  0  0  0  0  0  0  0  0  0  0  0
   18.0226   -7.3040   -6.0436 H   0  0  0  0  0  0  0  0  0  0  0  0
   18.1941   -7.3558   -4.2704 H   0  0  0  0  0  0  0  0  0  0  0  0
   18.1203   -4.4355   -4.0625 H   0  0  0  0  0  0  0  0  0  0  0  0
   15.2283   -3.9245   -4.5171 H   0  0  0  0  0  0  0  0  0  0  0  0
   16.9382   -2.9190   -0.6758 H   0  0  0  0  0  0  0  0  0  0  0  0
   17.4798   -1.9973   -2.0770 H   0  0  0  0  0  0  0  0  0  0  0  0
   17.9599   -3.6792   -1.8810 H   0  0  0  0  0  0  0  0  0  0  0  0
   15.1363   -4.7038   -0.9174 H   0  0  0  0  0  0  0  0  0  0  0  0
   16.1733   -5.5529   -2.0641 H   0  0  0  0  0  0  0  0  0  0  0  0
   14.5214   -5.1428   -2.5081 H   0  0  0  0  0  0  0  0  0  0  0  0
   15.0654   -1.4039   -2.5100 H   0  0  0  0  0  0  0  0  0  0  0  0
   14.5400   -2.3828   -1.1550 H   0  0  0  0  0  0  0  0  0  0  0  0
   13.8442   -2.6804   -2.7402 H   0  0  0  0  0  0  0  0  0  0  0  0
   17.0244   -1.0413   -7.0404 H   0  0  0  0  0  0  0  0  0  0  0  0
   17.9271    0.9127   -7.5009 H   0  0  0  0  0  0  0  0  0  0  0  0
   17.3711    3.4096   -6.9750 H   0  0  0  0  0  0  0  0  0  0  0  0
   17.7976    2.9407   -5.3221 H   0  0  0  0  0  0  0  0  0  0  0  0
   19.2945    5.0747   -6.0315 H   0  0  0  0  0  0  0  0  0  0  0  0
   21.6415    5.6106   -6.3803 H   0  0  0  0  0  0  0  0  0  0  0  0
   23.8360    2.5678   -9.9234 H   0  0  0  0  0  0  0  0  0  0  0  0
   24.7932    3.9471  -10.4661 H   0  0  0  0  0  0  0  0  0  0  0  0
   23.1026    4.1839  -10.0189 H   0  0  0  0  0  0  0  0  0  0  0  0
   26.9194    4.5592   -6.4298 H   0  0  0  0  0  0  0  0  0  0  0  0
   22.3271    1.6112   -7.7486 H   0  0  0  0  0  0  0  0  0  0  0  0
   20.0255    1.0659   -7.3748 H   0  0  0  0  0  0  0  0  0  0  0  0
   14.9138    0.4347   -7.9656 H   0  0  0  0  0  0  0  0  0  0  0  0
   14.9480   -1.3202   -8.1287 H   0  0  0  0  0  0  0  0  0  0  0  0
   13.4828    0.3281   -6.0292 H   0  0  0  0  0  0  0  0  0  0  0  0
   12.3335   -0.6354   -7.7699 H   0  0  0  0  0  0  0  0  0  0  0  0
   13.9026   -2.5747   -5.4096 H   0  0  0  0  0  0  0  0  0  0  0  0
   14.0161   -1.1477   -4.3809 H   0  0  0  0  0  0  0  0  0  0  0  0
  1 34  1  0  0  0  0
  1 35  1  0  0  0  0
  1 36  1  0  0  0  0
  1  2  1  0  0  0  0
  2  3  2  0  0  0  0
  2  4  1  0  0  0  0
  4 37  1  0  0  0  0
  5  4  1  0  0  0  0
  5 38  1  0  0  0  0
  5  6  1  0  0  0  0
  5 10  1  0  0  0  0
  6  7  1  0  0  0  0
  6  8  1  0  0  0  0
  6  9  1  0  0  0  0
  7 39  1  0  0  0  0
  7 40  1  0  0  0  0
  7 41  1  0  0  0  0
  8 42  1  0  0  0  0
  8 43  1  0  0  0  0
  8 44  1  0  0  0  0
  9 45  1  0  0  0  0
  9 46  1  0  0  0  0
  9 47  1  0  0  0  0
 10 11  2  0  0  0  0
 10 12  1  0  0  0  0
 12 33  1  0  0  0  0
 13 12  1  0  0  0  0
 13 30  1  0  0  0  0
 13 48  1  0  0  0  0
 13 14  1  0  0  0  0
 14 15  2  0  0  0  0
 14 16  1  0  0  0  0
 16 49  1  0  0  0  0
 16 17  1  0  0  0  0
 17 50  1  0  0  0  0
 17 51  1  0  0  0  0
 17 18  1  0  0  0  0
 18 19  1  0  0  0  0
 18 29  2  0  0  0  0
 19 52  1  0  0  0  0
 19 20  2  0  0  0  0
 20 53  1  0  0  0  0
 20 21  1  0  0  0  0
 21 28  2  0  0  0  0
 21 22  1  0  0  0  0
 22 23  2  0  0  0  0
 22 27  1  0  0  0  0
 23 24  1  0  0  0  0
 23 25  1  0  0  0  0
 24 54  1  0  0  0  0
 24 55  1  0  0  0  0
 24 56  1  0  0  0  0
 25 26  2  0  0  0  0
 26 57  1  0  0  0  0
 26 27  1  0  0  0  0
 28 58  1  0  0  0  0
 28 29  1  0  0  0  0
 29 59  1  0  0  0  0
 31 30  1  0  0  0  0
 30 60  1  0  0  0  0
 30 61  1  0  0  0  0
 31 33  1  0  0  0  0
 31 62  1  0  0  0  0
 31 32  1  0  0  0  0
 32 63  1  0  0  0  0
 33 64  1  0  0  0  0
 33 65  1  0  0  0  0
M  ZZC   1 c1
M  ZZC   2 c2
M  ZZC   3 o1
M  ZZC   4 n1
M  ZZC   5 c3
M  ZZC   6 c4
M  ZZC   7 c5
M  ZZC   8 c6
M  ZZC   9 c7
M  ZZC  10 c8
M  ZZC  11 o2
M  ZZC  12 n2
M  ZZC  13 c9
M  ZZC  14 c10
M  ZZC  15 o3
M  ZZC  16 n3
M  ZZC  17 c11
M  ZZC  18 c12
M  ZZC  19 c13
M  ZZC  20 c14
M  ZZC  21 c15
M  ZZC  22 c16
M  ZZC  23 c17
M  ZZC  24 c18
M  ZZC  25 n4
M  ZZC  26 c19
M  ZZC  27 s1
M  ZZC  28 c20
M  ZZC  29 c21
M  ZZC  30 c22
M  ZZC  31 c23
M  ZZC  32 o4
M  ZZC  33 c24
M  ZZC  34 h11
M  ZZC  35 h12
M  ZZC  36 h13
M  ZZC  37 h01
M  ZZC  38 h31
M  ZZC  39 h51
M  ZZC  40 h52
M  ZZC  41 h53
M  ZZC  42 h61
M  ZZC  43 h62
M  ZZC  44 h63
M  ZZC  45 h71
M  ZZC  46 h72
M  ZZC  47 h73
M  ZZC  48 h91
M  ZZC  49 h02
M  ZZC  50 h111
M  ZZC  51 h112
M  ZZC  52 h131
M  ZZC  53 h141
M  ZZC  54 h181
M  ZZC  55 h182
M  ZZC  56 h183
M  ZZC  57 h191
M  ZZC  58 h201
M  ZZC  59 h211
M  ZZC  60 h221
M  ZZC  61 h222
M  ZZC  62 h231
M  ZZC  63 h41
M  ZZC  64 h241
M  ZZC  65 h242
M  ZZM   1 1
M  ZZI   1 111
M  ZZM   2 3
M  ZZI   2 121
M  ZZM   3 7
M  ZZI   3 81
M  ZZM   4 10
M  ZZI   4 211
M  ZZM   5 1
M  ZZI   5 113
M  ZZM   6 1
M  ZZI   6 110
M  ZZM   7 1
M  ZZI   7 111
M  ZZM   8 1
M  ZZI   8 111
M  ZZM   9 1
M  ZZI   9 111
M  ZZM  10 3
M  ZZI  10 121
M  ZZM  11 7
M  ZZI  11 81
M  ZZM  12 10
M  ZZI  12 192
M  ZZM  13 1
M  ZZI  13 113
M  ZZM  14 3
M  ZZI  14 121
M  ZZM  15 7
M  ZZI  15 81
M  ZZM  16 10
M  ZZI  16 211
M  ZZM  17 1
M  ZZI  17 112
M  ZZM  18 37
M  ZZI  18 124
M  ZZM  19 37
M  ZZI  19 125
M  ZZM  20 37
M  ZZI  20 125
M  ZZM  21 37
M  ZZI  21 124
M  ZZM  22 63
M  ZZI  22 104
M  ZZM  23 64
M  ZZI  23 105
M  ZZM  24 1
M  ZZI  24 111
M  ZZM  25 66
M  ZZI  25 222
M  ZZM  26 63
M  ZZI  26 104
M  ZZM  27 44
M  ZZI  27 248
M  ZZM  28 37
M  ZZI  28 125
M  ZZM  29 37
M  ZZI  29 125
M  ZZM  30 1
M  ZZI  30 112
M  ZZM  31 1
M  ZZI  31 113
M  ZZM  32 6
M  ZZI  32 60
M  ZZM  33 1
M  ZZI  33 112
M  ZZM  34 5
M  ZZI  34 1
M  ZZM  35 5
M  ZZI  35 1
M  ZZM  36 5
M  ZZI  36 1
M  ZZM  37 28
M  ZZI  37 11
M  ZZM  38 5
M  ZZI  38 1
M  ZZM  39 5
M  ZZI  39 1
M  ZZM  40 5
M  ZZI  40 1
M  ZZM  41 5
M  ZZI  41 1
M  ZZM  42 5
M  ZZI  42 1
M  ZZM  43 5
M  ZZI  43 1
M  ZZM  44 5
M  ZZI  44 1
M  ZZM  45 5
M  ZZI  45 1
M  ZZM  46 5
M  ZZI  46 1
M  ZZM  47 5
M  ZZI  47 1
M  ZZM  48 5
M  ZZI  48 1
M  ZZM  49 28
M  ZZI  49 11
M  ZZM  50 5
M  ZZI  50 1
M  ZZM  51 5
M  ZZI  51 1
M  ZZM  52 5
M  ZZI  52 1
M  ZZM  53 5
M  ZZI  53 1
M  ZZM  54 5
M  ZZI  54 1
M  ZZM  55 5
M  ZZI  55 1
M  ZZM  56 5
M  ZZI  56 1
M  ZZM  57 5
M  ZZI  57 1
M  ZZM  58 5
M  ZZI  58 1
M  ZZM  59 5
M  ZZI  59 1
M  ZZM  60 5
M  ZZI  60 1
M  ZZM  61 5
M  ZZI  61 1
M  ZZM  62 5
M  ZZI  62 1
M  ZZM  63 21
M  ZZI  63 20
M  ZZM  64 5
M  ZZI  64 1
M  ZZM  65 5
M  ZZI  65 1
M  END
> <IX>
1

> <NAME>
VHL_6YOJ_1.pdb

> <Score>
-11.091004

> <Natom>
65

> <Nflex>
8

> <Hbond>
-4.960599

> <Hphob>
-6.521998

> <VwInt>
-28.100725

> <Dsolv>
16.772067

> <SolEl>
17.296608

> <Eintl>
8.558275

> <RecConf>
ND

> <projPath>
VHL_maps/

> <NAME_>
VHL_6YOJ_1.pdb

$$$$
