VHL_4QNQ_12.pdb
  MOLSOFT 04032206403D

 68 70  0  0  1  0  0  0  0  0999 V2000
   11.7306   -0.0982   -6.5595 C   0  0  0  0  0  0  0  0  0  0  0  0
   13.0426   -0.8059   -6.3924 C   0  0  0  0  0  0  0  0  0  0  0  0
   13.2497   -1.9049   -6.8769 O   0  0  0  0  0  0  0  0  0  0  0  0
   13.9483   -0.1001   -5.6385 N   0  0  0  0  0  0  0  0  0  0  0  0
   15.2840   -0.6192   -5.3359 C   0  0  1  0  0  0  0  0  0  0  0  0
   16.3538    0.5104   -5.4033 C   0  0  0  0  0  0  0  0  0  0  0  0
   16.0929    1.6499   -4.4018 C   0  0  0  0  0  0  0  0  0  0  0  0
   16.3720    1.1037   -6.8242 C   0  0  0  0  0  0  0  0  0  0  0  0
   17.7460   -0.0579   -5.1216 C   0  0  0  0  0  0  0  0  0  0  0  0
   15.1501   -1.3172   -3.9672 C   0  0  0  0  0  0  0  0  0  0  0  0
   14.5555   -0.7740   -3.0439 O   0  0  0  0  0  0  0  0  0  0  0  0
   15.6989   -2.5950   -3.8158 N   0  0  0  0  0  0  0  0  0  0  0  0
   15.4821   -3.3467   -2.5886 C   0  0  2  0  0  0  0  0  0  0  0  0
   16.5202   -2.9814   -1.5236 C   0  0  0  0  0  0  0  0  0  0  0  0
   17.6695   -2.6631   -1.7975 O   0  0  0  0  0  0  0  0  0  0  0  0
   16.0518   -3.1086   -0.2279 N   0  0  0  0  0  0  0  0  0  0  0  0
   16.8855   -2.8124    0.9289 C   0  0  1  0  0  0  0  0  0  0  0  0
   17.0070   -1.3032    1.1449 C   0  0  0  0  0  0  0  0  0  0  0  0
   16.3619   -3.5217    2.1623 C   0  0  0  0  0  0  0  0  0  0  0  0
   17.0663   -4.5935    2.7026 C   0  0  0  0  0  0  0  0  0  0  0  0
   16.5732   -5.3003    3.7853 C   0  0  0  0  0  0  0  0  0  0  0  0
   15.3643   -4.9570    4.3833 C   0  0  0  0  0  0  0  0  0  0  0  0
   14.8201   -5.7539    5.4835 C   0  0  0  0  0  0  0  0  0  0  0  0
   15.4297   -6.3189    6.6004 C   0  0  0  0  0  0  0  0  0  0  0  0
   16.8509   -6.2155    7.0061 C   0  0  0  0  0  0  0  0  0  0  0  0
   14.5943   -7.0530    7.4189 N   0  0  0  0  0  0  0  0  0  0  0  0
   13.3735   -7.0392    6.9365 C   0  0  0  0  0  0  0  0  0  0  0  0
   13.1441   -6.1628    5.4922 S   0  0  0  0  0  0  0  0  0  0  0  0
   14.6752   -3.8613    3.8650 C   0  0  0  0  0  0  0  0  0  0  0  0
   15.1601   -3.1631    2.7714 C   0  0  0  0  0  0  0  0  0  0  0  0
   15.6252   -4.7963   -3.0126 C   0  0  0  0  0  0  0  0  0  0  0  0
   16.6565   -4.7541   -4.1306 C   0  0  1  0  0  0  0  0  0  0  0  0
   16.4404   -5.8204   -5.0581 O   0  0  0  0  0  0  0  0  0  0  0  0
   16.4667   -3.3801   -4.7744 C   0  0  0  0  0  0  0  0  0  0  0  0
   11.9000    0.9093   -6.9460 H   0  0  0  0  0  0  0  0  0  0  0  0
   11.2215   -0.0388   -5.5941 H   0  0  0  0  0  0  0  0  0  0  0  0
   11.1037   -0.6485   -7.2648 H   0  0  0  0  0  0  0  0  0  0  0  0
   13.6346    0.7440   -5.1723 H   0  0  0  0  0  0  0  0  0  0  0  0
   15.5155   -1.3693   -6.0972 H   0  0  0  0  0  0  0  0  0  0  0  0
   15.1178    2.1145   -4.5814 H   0  0  0  0  0  0  0  0  0  0  0  0
   16.8402    2.4443   -4.4833 H   0  0  0  0  0  0  0  0  0  0  0  0
   16.0877    1.2999   -3.3655 H   0  0  0  0  0  0  0  0  0  0  0  0
   17.1674    1.8475   -6.9377 H   0  0  0  0  0  0  0  0  0  0  0  0
   15.4304    1.6034   -7.0730 H   0  0  0  0  0  0  0  0  0  0  0  0
   16.5411    0.3295   -7.5806 H   0  0  0  0  0  0  0  0  0  0  0  0
   17.8133   -0.4666   -4.1080 H   0  0  0  0  0  0  0  0  0  0  0  0
   18.5066    0.7225   -5.2089 H   0  0  0  0  0  0  0  0  0  0  0  0
   18.0058   -0.8656   -5.8127 H   0  0  0  0  0  0  0  0  0  0  0  0
   14.4781   -3.1443   -2.1974 H   0  0  0  0  0  0  0  0  0  0  0  0
   15.0869   -3.3758   -0.0669 H   0  0  0  0  0  0  0  0  0  0  0  0
   17.8901   -3.1890    0.7034 H   0  0  0  0  0  0  0  0  0  0  0  0
   17.4876   -0.8209    0.2882 H   0  0  0  0  0  0  0  0  0  0  0  0
   17.6057   -1.0774    2.0331 H   0  0  0  0  0  0  0  0  0  0  0  0
   16.0295   -0.8260    1.2686 H   0  0  0  0  0  0  0  0  0  0  0  0
   18.0057   -4.9127    2.2597 H   0  0  0  0  0  0  0  0  0  0  0  0
   17.1396   -6.1561    4.1379 H   0  0  0  0  0  0  0  0  0  0  0  0
   17.4622   -6.9345    6.4543 H   0  0  0  0  0  0  0  0  0  0  0  0
   16.9683   -6.4301    8.0723 H   0  0  0  0  0  0  0  0  0  0  0  0
   17.2454   -5.2113    6.8264 H   0  0  0  0  0  0  0  0  0  0  0  0
   12.5556   -7.5523    7.4219 H   0  0  0  0  0  0  0  0  0  0  0  0
   13.7331   -3.5417    4.3002 H   0  0  0  0  0  0  0  0  0  0  0  0
   14.5728   -2.3350    2.3856 H   0  0  0  0  0  0  0  0  0  0  0  0
   15.9295   -5.4622   -2.2004 H   0  0  0  0  0  0  0  0  0  0  0  0
   14.6712   -5.1759   -3.3919 H   0  0  0  0  0  0  0  0  0  0  0  0
   17.6703   -4.8480   -3.7321 H   0  0  0  0  0  0  0  0  0  0  0  0
   16.3649   -6.6489   -4.5491 H   0  0  0  0  0  0  0  0  0  0  0  0
   15.9623   -3.4176   -5.7412 H   0  0  0  0  0  0  0  0  0  0  0  0
   17.4333   -2.8952   -4.9315 H   0  0  0  0  0  0  0  0  0  0  0  0
  1 35  1  0  0  0  0
  1 36  1  0  0  0  0
  1 37  1  0  0  0  0
  1  2  1  0  0  0  0
  2  3  2  0  0  0  0
  2  4  1  0  0  0  0
  4 38  1  0  0  0  0
  5  4  1  0  0  0  0
  5 39  1  0  0  0  0
  5  6  1  0  0  0  0
  5 10  1  0  0  0  0
  6  7  1  0  0  0  0
  6  8  1  0  0  0  0
  6  9  1  0  0  0  0
  7 40  1  0  0  0  0
  7 41  1  0  0  0  0
  7 42  1  0  0  0  0
  8 43  1  0  0  0  0
  8 44  1  0  0  0  0
  8 45  1  0  0  0  0
  9 46  1  0  0  0  0
  9 47  1  0  0  0  0
  9 48  1  0  0  0  0
 10 11  2  0  0  0  0
 10 12  1  0  0  0  0
 12 34  1  0  0  0  0
 13 12  1  0  0  0  0
 13 31  1  0  0  0  0
 13 49  1  0  0  0  0
 13 14  1  0  0  0  0
 14 15  2  0  0  0  0
 14 16  1  0  0  0  0
 16 50  1  0  0  0  0
 17 16  1  0  0  0  0
 17 51  1  0  0  0  0
 17 18  1  0  0  0  0
 17 19  1  0  0  0  0
 18 52  1  0  0  0  0
 18 53  1  0  0  0  0
 18 54  1  0  0  0  0
 19 20  1  0  0  0  0
 19 30  2  0  0  0  0
 20 55  1  0  0  0  0
 20 21  2  0  0  0  0
 21 56  1  0  0  0  0
 21 22  1  0  0  0  0
 22 29  2  0  0  0  0
 22 23  1  0  0  0  0
 23 24  2  0  0  0  0
 23 28  1  0  0  0  0
 24 25  1  0  0  0  0
 24 26  1  0  0  0  0
 25 57  1  0  0  0  0
 25 58  1  0  0  0  0
 25 59  1  0  0  0  0
 26 27  2  0  0  0  0
 27 60  1  0  0  0  0
 27 28  1  0  0  0  0
 29 61  1  0  0  0  0
 29 30  1  0  0  0  0
 30 62  1  0  0  0  0
 32 31  1  0  0  0  0
 31 63  1  0  0  0  0
 31 64  1  0  0  0  0
 32 34  1  0  0  0  0
 32 65  1  0  0  0  0
 32 33  1  0  0  0  0
 33 66  1  0  0  0  0
 34 67  1  0  0  0  0
 34 68  1  0  0  0  0
M  ZZC   1 c1
M  ZZC   2 c2
M  ZZC   3 o1
M  ZZC   4 n1
M  ZZC   5 c3
M  ZZC   6 c4
M  ZZC   7 c5
M  ZZC   8 c6
M  ZZC   9 c7
M  ZZC  10 c8
M  ZZC  11 o2
M  ZZC  12 n2
M  ZZC  13 c9
M  ZZC  14 c10
M  ZZC  15 o3
M  ZZC  16 n3
M  ZZC  17 c11
M  ZZC  18 c12
M  ZZC  19 c13
M  ZZC  20 c14
M  ZZC  21 c15
M  ZZC  22 c16
M  ZZC  23 c17
M  ZZC  24 c18
M  ZZC  25 c19
M  ZZC  26 n4
M  ZZC  27 c20
M  ZZC  28 s1
M  ZZC  29 c21
M  ZZC  30 c22
M  ZZC  31 c23
M  ZZC  32 c24
M  ZZC  33 o4
M  ZZC  34 c25
M  ZZC  35 h11
M  ZZC  36 h12
M  ZZC  37 h13
M  ZZC  38 h01
M  ZZC  39 h31
M  ZZC  40 h51
M  ZZC  41 h52
M  ZZC  42 h53
M  ZZC  43 h61
M  ZZC  44 h62
M  ZZC  45 h63
M  ZZC  46 h71
M  ZZC  47 h72
M  ZZC  48 h73
M  ZZC  49 h91
M  ZZC  50 h02
M  ZZC  51 h111
M  ZZC  52 h121
M  ZZC  53 h122
M  ZZC  54 h123
M  ZZC  55 h141
M  ZZC  56 h151
M  ZZC  57 h191
M  ZZC  58 h192
M  ZZC  59 h193
M  ZZC  60 h201
M  ZZC  61 h211
M  ZZC  62 h221
M  ZZC  63 h231
M  ZZC  64 h232
M  ZZC  65 h241
M  ZZC  66 h41
M  ZZC  67 h251
M  ZZC  68 h252
M  ZZM   1 1
M  ZZI   1 111
M  ZZM   2 3
M  ZZI   2 121
M  ZZM   3 7
M  ZZI   3 81
M  ZZM   4 10
M  ZZI   4 211
M  ZZM   5 1
M  ZZI   5 113
M  ZZM   6 1
M  ZZI   6 110
M  ZZM   7 1
M  ZZI   7 111
M  ZZM   8 1
M  ZZI   8 111
M  ZZM   9 1
M  ZZI   9 111
M  ZZM  10 3
M  ZZI  10 121
M  ZZM  11 7
M  ZZI  11 81
M  ZZM  12 10
M  ZZI  12 192
M  ZZM  13 1
M  ZZI  13 113
M  ZZM  14 3
M  ZZI  14 121
M  ZZM  15 7
M  ZZI  15 81
M  ZZM  16 10
M  ZZI  16 211
M  ZZM  17 1
M  ZZI  17 113
M  ZZM  18 1
M  ZZI  18 111
M  ZZM  19 37
M  ZZI  19 124
M  ZZM  20 37
M  ZZI  20 125
M  ZZM  21 37
M  ZZI  21 125
M  ZZM  22 37
M  ZZI  22 124
M  ZZM  23 63
M  ZZI  23 104
M  ZZM  24 64
M  ZZI  24 105
M  ZZM  25 1
M  ZZI  25 111
M  ZZM  26 66
M  ZZI  26 222
M  ZZM  27 63
M  ZZI  27 104
M  ZZM  28 44
M  ZZI  28 248
M  ZZM  29 37
M  ZZI  29 125
M  ZZM  30 37
M  ZZI  30 125
M  ZZM  31 1
M  ZZI  31 112
M  ZZM  32 1
M  ZZI  32 113
M  ZZM  33 6
M  ZZI  33 60
M  ZZM  34 1
M  ZZI  34 112
M  ZZM  35 5
M  ZZI  35 1
M  ZZM  36 5
M  ZZI  36 1
M  ZZM  37 5
M  ZZI  37 1
M  ZZM  38 28
M  ZZI  38 11
M  ZZM  39 5
M  ZZI  39 1
M  ZZM  40 5
M  ZZI  40 1
M  ZZM  41 5
M  ZZI  41 1
M  ZZM  42 5
M  ZZI  42 1
M  ZZM  43 5
M  ZZI  43 1
M  ZZM  44 5
M  ZZI  44 1
M  ZZM  45 5
M  ZZI  45 1
M  ZZM  46 5
M  ZZI  46 1
M  ZZM  47 5
M  ZZI  47 1
M  ZZM  48 5
M  ZZI  48 1
M  ZZM  49 5
M  ZZI  49 1
M  ZZM  50 28
M  ZZI  50 11
M  ZZM  51 5
M  ZZI  51 1
M  ZZM  52 5
M  ZZI  52 1
M  ZZM  53 5
M  ZZI  53 1
M  ZZM  54 5
M  ZZI  54 1
M  ZZM  55 5
M  ZZI  55 1
M  ZZM  56 5
M  ZZI  56 1
M  ZZM  57 5
M  ZZI  57 1
M  ZZM  58 5
M  ZZI  58 1
M  ZZM  59 5
M  ZZI  59 1
M  ZZM  60 5
M  ZZI  60 1
M  ZZM  61 5
M  ZZI  61 1
M  ZZM  62 5
M  ZZI  62 1
M  ZZM  63 5
M  ZZI  63 1
M  ZZM  64 5
M  ZZI  64 1
M  ZZM  65 5
M  ZZI  65 1
M  ZZM  66 21
M  ZZI  66 20
M  ZZM  67 5
M  ZZI  67 1
M  ZZM  68 5
M  ZZI  68 1
M  END
> <IX>
1

> <NAME>
VHL_4QNQ_12.pdb

> <Score>
-12.017304

> <Natom>
68

> <Nflex>
8

> <Hbond>
-3.026841

> <Hphob>
-5.727433

> <VwInt>
-28.137504

> <Dsolv>
18.394694

> <SolEl>
10.602856

> <Eintl>
3.369302

> <RecConf>
ND

> <projPath>
VHL_maps/

> <NAME_>
VHL_4QNQ_12.pdb

$$$$
