VHL_4CI3_16.pdb
  MOLSOFT 04032206393D

 65 67  0  0  1  0  0  0  0  0999 V2000
   15.3519   -5.3244   -3.2983 O   0  0  0  0  0  0  0  0  0  0  0  0
   16.4535   -5.1218   -3.7851 C   0  0  0  0  0  0  0  0  0  0  0  0
   17.0382   -3.8767   -3.8767 N   0  0  0  0  0  0  0  0  0  0  0  0
   16.3023   -2.6480   -3.5656 C   0  0  1  0  0  0  0  0  0  0  0  0
   16.5759   -2.0764   -2.1409 C   0  0  0  0  0  0  0  0  0  0  0  0
   18.0126   -1.5581   -1.9782 C   0  0  0  0  0  0  0  0  0  0  0  0
   15.6096   -0.9159   -1.8559 C   0  0  0  0  0  0  0  0  0  0  0  0
   16.3290   -3.1556   -1.0732 C   0  0  0  0  0  0  0  0  0  0  0  0
   16.6624   -1.6829   -4.7130 C   0  0  0  0  0  0  0  0  0  0  0  0
   17.8322   -1.4464   -4.9919 O   0  0  0  0  0  0  0  0  0  0  0  0
   15.6058   -1.1418   -5.4441 N   0  0  0  0  0  0  0  0  0  0  0  0
   15.8461   -0.3667   -6.6523 C   0  0  2  0  0  0  0  0  0  0  0  0
   16.1858    1.0884   -6.3188 C   0  0  0  0  0  0  0  0  0  0  0  0
   15.5072    1.7734   -5.5652 O   0  0  0  0  0  0  0  0  0  0  0  0
   17.3194    1.5517   -6.9587 N   0  0  0  0  0  0  0  0  0  0  0  0
   17.8054    2.9048   -6.7458 C   0  0  0  0  0  0  0  0  0  0  0  0
   19.2394    3.1255   -7.1659 C   0  0  0  0  0  0  0  0  0  0  0  0
   19.6831    4.4020   -7.5054 C   0  0  0  0  0  0  0  0  0  0  0  0
   21.0087    4.6368   -7.8418 C   0  0  0  0  0  0  0  0  0  0  0  0
   21.9289    3.5964   -7.8467 C   0  0  0  0  0  0  0  0  0  0  0  0
   23.3273    3.8156   -8.1794 C   0  0  0  0  0  0  0  0  0  0  0  0
   24.3924    4.2035   -7.3791 C   0  0  0  0  0  0  0  0  0  0  0  0
   24.3437    4.5401   -5.9385 C   0  0  0  0  0  0  0  0  0  0  0  0
   25.6151    4.2520   -8.0181 N   0  0  0  0  0  0  0  0  0  0  0  0
   25.4655    3.9313   -9.2839 C   0  0  0  0  0  0  0  0  0  0  0  0
   23.8775    3.5588   -9.7864 S   0  0  0  0  0  0  0  0  0  0  0  0
   21.4893    2.3270   -7.5048 C   0  0  0  0  0  0  0  0  0  0  0  0
   20.1726    2.0953   -7.1615 C   0  0  0  0  0  0  0  0  0  0  0  0
   14.5356   -0.4605   -7.4139 C   0  0  0  0  0  0  0  0  0  0  0  0
   13.4768   -0.5894   -6.3290 C   0  0  1  0  0  0  0  0  0  0  0  0
   12.3424   -1.3167   -6.7994 O   0  0  0  0  0  0  0  0  0  0  0  0
   14.1868   -1.3713   -5.2361 C   0  0  0  0  0  0  0  0  0  0  0  0
   17.2860   -6.2309   -4.3748 C   0  0  0  0  0  0  0  0  0  0  0  0
   17.9835   -3.7979   -4.2411 H   0  0  0  0  0  0  0  0  0  0  0  0
   15.2423   -2.9064   -3.6224 H   0  0  0  0  0  0  0  0  0  0  0  0
   18.7446   -2.3130   -2.2684 H   0  0  0  0  0  0  0  0  0  0  0  0
   18.2242   -1.2849   -0.9396 H   0  0  0  0  0  0  0  0  0  0  0  0
   18.1989   -0.6643   -2.5807 H   0  0  0  0  0  0  0  0  0  0  0  0
   14.5655   -1.2422   -1.9093 H   0  0  0  0  0  0  0  0  0  0  0  0
   15.7384   -0.0937   -2.5666 H   0  0  0  0  0  0  0  0  0  0  0  0
   15.7665   -0.5021   -0.8544 H   0  0  0  0  0  0  0  0  0  0  0  0
   15.3193   -3.5723   -1.1495 H   0  0  0  0  0  0  0  0  0  0  0  0
   16.4326   -2.7491   -0.0619 H   0  0  0  0  0  0  0  0  0  0  0  0
   17.0406   -3.9824   -1.1552 H   0  0  0  0  0  0  0  0  0  0  0  0
   16.6654   -0.8175   -7.2244 H   0  0  0  0  0  0  0  0  0  0  0  0
   17.8303    0.9294   -7.5789 H   0  0  0  0  0  0  0  0  0  0  0  0
   17.1411    3.5651   -7.3143 H   0  0  0  0  0  0  0  0  0  0  0  0
   17.6963    3.1546   -5.6848 H   0  0  0  0  0  0  0  0  0  0  0  0
   18.9888    5.2374   -7.5048 H   0  0  0  0  0  0  0  0  0  0  0  0
   21.3202    5.6442   -8.1019 H   0  0  0  0  0  0  0  0  0  0  0  0
   25.3201    4.8787   -5.5800 H   0  0  0  0  0  0  0  0  0  0  0  0
   24.0582    3.6673   -5.3474 H   0  0  0  0  0  0  0  0  0  0  0  0
   23.6212    5.3389   -5.7481 H   0  0  0  0  0  0  0  0  0  0  0  0
   26.2953    3.9042   -9.9756 H   0  0  0  0  0  0  0  0  0  0  0  0
   22.1774    1.4907   -7.5102 H   0  0  0  0  0  0  0  0  0  0  0  0
   19.8835    1.0862   -6.8901 H   0  0  0  0  0  0  0  0  0  0  0  0
   14.3479    0.3928   -8.0743 H   0  0  0  0  0  0  0  0  0  0  0  0
   14.5432   -1.3620   -8.0351 H   0  0  0  0  0  0  0  0  0  0  0  0
   13.1502    0.3903   -5.9629 H   0  0  0  0  0  0  0  0  0  0  0  0
   11.8992   -0.7826   -7.4838 H   0  0  0  0  0  0  0  0  0  0  0  0
   13.9785   -2.4438   -5.3003 H   0  0  0  0  0  0  0  0  0  0  0  0
   13.8928   -1.0302   -4.2395 H   0  0  0  0  0  0  0  0  0  0  0  0
   16.7572   -6.6555   -5.2335 H   0  0  0  0  0  0  0  0  0  0  0  0
   17.4401   -7.0086   -3.6237 H   0  0  0  0  0  0  0  0  0  0  0  0
   18.2640   -5.8733   -4.7093 H   0  0  0  0  0  0  0  0  0  0  0  0
  1  2  2  0  0  0  0
  2  3  1  0  0  0  0
  2 33  1  0  0  0  0
  4  3  1  0  0  0  0
  3 34  1  0  0  0  0
  4  5  1  0  0  0  0
  4 35  1  0  0  0  0
  4  9  1  0  0  0  0
  5  6  1  0  0  0  0
  5  7  1  0  0  0  0
  5  8  1  0  0  0  0
  6 36  1  0  0  0  0
  6 37  1  0  0  0  0
  6 38  1  0  0  0  0
  7 39  1  0  0  0  0
  7 40  1  0  0  0  0
  7 41  1  0  0  0  0
  8 42  1  0  0  0  0
  8 43  1  0  0  0  0
  8 44  1  0  0  0  0
  9 10  2  0  0  0  0
  9 11  1  0  0  0  0
 11 32  1  0  0  0  0
 12 11  1  0  0  0  0
 12 29  1  0  0  0  0
 12 45  1  0  0  0  0
 12 13  1  0  0  0  0
 13 14  2  0  0  0  0
 13 15  1  0  0  0  0
 15 46  1  0  0  0  0
 15 16  1  0  0  0  0
 16 47  1  0  0  0  0
 16 48  1  0  0  0  0
 16 17  1  0  0  0  0
 17 18  1  0  0  0  0
 17 28  2  0  0  0  0
 18 49  1  0  0  0  0
 18 19  2  0  0  0  0
 19 50  1  0  0  0  0
 19 20  1  0  0  0  0
 20 27  2  0  0  0  0
 20 21  1  0  0  0  0
 21 22  2  0  0  0  0
 21 26  1  0  0  0  0
 22 23  1  0  0  0  0
 22 24  1  0  0  0  0
 23 51  1  0  0  0  0
 23 52  1  0  0  0  0
 23 53  1  0  0  0  0
 24 25  2  0  0  0  0
 25 54  1  0  0  0  0
 25 26  1  0  0  0  0
 27 55  1  0  0  0  0
 27 28  1  0  0  0  0
 28 56  1  0  0  0  0
 30 29  1  0  0  0  0
 29 57  1  0  0  0  0
 29 58  1  0  0  0  0
 30 32  1  0  0  0  0
 30 59  1  0  0  0  0
 30 31  1  0  0  0  0
 31 60  1  0  0  0  0
 32 61  1  0  0  0  0
 32 62  1  0  0  0  0
 33 63  1  0  0  0  0
 33 64  1  0  0  0  0
 33 65  1  0  0  0  0
M  ZZC   1 o1
M  ZZC   2 c1
M  ZZC   3 n1
M  ZZC   4 c2
M  ZZC   5 c3
M  ZZC   6 c4
M  ZZC   7 c5
M  ZZC   8 c6
M  ZZC   9 c7
M  ZZC  10 o2
M  ZZC  11 n2
M  ZZC  12 c8
M  ZZC  13 c9
M  ZZC  14 o3
M  ZZC  15 n3
M  ZZC  16 c10
M  ZZC  17 c11
M  ZZC  18 c12
M  ZZC  19 c13
M  ZZC  20 c14
M  ZZC  21 c15
M  ZZC  22 c16
M  ZZC  23 c17
M  ZZC  24 n4
M  ZZC  25 c18
M  ZZC  26 s1
M  ZZC  27 c19
M  ZZC  28 c20
M  ZZC  29 c21
M  ZZC  30 c22
M  ZZC  31 o4
M  ZZC  32 c23
M  ZZC  33 c24
M  ZZC  34 h11
M  ZZC  35 h21
M  ZZC  36 h41
M  ZZC  37 h42
M  ZZC  38 h43
M  ZZC  39 h51
M  ZZC  40 h52
M  ZZC  41 h53
M  ZZC  42 h61
M  ZZC  43 h62
M  ZZC  44 h63
M  ZZC  45 h81
M  ZZC  46 h31
M  ZZC  47 h101
M  ZZC  48 h102
M  ZZC  49 h121
M  ZZC  50 h131
M  ZZC  51 h171
M  ZZC  52 h172
M  ZZC  53 h173
M  ZZC  54 h181
M  ZZC  55 h191
M  ZZC  56 h201
M  ZZC  57 h211
M  ZZC  58 h212
M  ZZC  59 h221
M  ZZC  60 h01
M  ZZC  61 h231
M  ZZC  62 h232
M  ZZC  63 h241
M  ZZC  64 h242
M  ZZC  65 h243
M  ZZM   1 7
M  ZZI   1 81
M  ZZM   2 3
M  ZZI   2 121
M  ZZM   3 10
M  ZZI   3 211
M  ZZM   4 1
M  ZZI   4 113
M  ZZM   5 1
M  ZZI   5 110
M  ZZM   6 1
M  ZZI   6 111
M  ZZM   7 1
M  ZZI   7 111
M  ZZM   8 1
M  ZZI   8 111
M  ZZM   9 3
M  ZZI   9 121
M  ZZM  10 7
M  ZZI  10 81
M  ZZM  11 10
M  ZZI  11 192
M  ZZM  12 1
M  ZZI  12 113
M  ZZM  13 3
M  ZZI  13 121
M  ZZM  14 7
M  ZZI  14 81
M  ZZM  15 10
M  ZZI  15 211
M  ZZM  16 1
M  ZZI  16 112
M  ZZM  17 37
M  ZZI  17 124
M  ZZM  18 37
M  ZZI  18 125
M  ZZM  19 37
M  ZZI  19 125
M  ZZM  20 37
M  ZZI  20 124
M  ZZM  21 63
M  ZZI  21 104
M  ZZM  22 64
M  ZZI  22 105
M  ZZM  23 1
M  ZZI  23 111
M  ZZM  24 66
M  ZZI  24 222
M  ZZM  25 63
M  ZZI  25 104
M  ZZM  26 44
M  ZZI  26 248
M  ZZM  27 37
M  ZZI  27 125
M  ZZM  28 37
M  ZZI  28 125
M  ZZM  29 1
M  ZZI  29 112
M  ZZM  30 1
M  ZZI  30 113
M  ZZM  31 6
M  ZZI  31 60
M  ZZM  32 1
M  ZZI  32 112
M  ZZM  33 1
M  ZZI  33 111
M  ZZM  34 28
M  ZZI  34 11
M  ZZM  35 5
M  ZZI  35 1
M  ZZM  36 5
M  ZZI  36 1
M  ZZM  37 5
M  ZZI  37 1
M  ZZM  38 5
M  ZZI  38 1
M  ZZM  39 5
M  ZZI  39 1
M  ZZM  40 5
M  ZZI  40 1
M  ZZM  41 5
M  ZZI  41 1
M  ZZM  42 5
M  ZZI  42 1
M  ZZM  43 5
M  ZZI  43 1
M  ZZM  44 5
M  ZZI  44 1
M  ZZM  45 5
M  ZZI  45 1
M  ZZM  46 28
M  ZZI  46 11
M  ZZM  47 5
M  ZZI  47 1
M  ZZM  48 5
M  ZZI  48 1
M  ZZM  49 5
M  ZZI  49 1
M  ZZM  50 5
M  ZZI  50 1
M  ZZM  51 5
M  ZZI  51 1
M  ZZM  52 5
M  ZZI  52 1
M  ZZM  53 5
M  ZZI  53 1
M  ZZM  54 5
M  ZZI  54 1
M  ZZM  55 5
M  ZZI  55 1
M  ZZM  56 5
M  ZZI  56 1
M  ZZM  57 5
M  ZZI  57 1
M  ZZM  58 5
M  ZZI  58 1
M  ZZM  59 5
M  ZZI  59 1
M  ZZM  60 21
M  ZZI  60 20
M  ZZM  61 5
M  ZZI  61 1
M  ZZM  62 5
M  ZZI  62 1
M  ZZM  63 5
M  ZZI  63 1
M  ZZM  64 5
M  ZZI  64 1
M  ZZM  65 5
M  ZZI  65 1
M  END
> <IX>
1

> <NAME>
VHL_4CI3_16.pdb

> <Score>
-15.881004

> <Natom>
65

> <Nflex>
8

> <Hbond>
-4.882758

> <Hphob>
-6.322614

> <VwInt>
-32.188908

> <Dsolv>
17.482045

> <SolEl>
18.550449

> <Eintl>
4.571004

> <RecConf>
ND

> <projPath>
VHL_maps/

> <NAME_>
VHL_4CI3_16.pdb

$$$$
