Cereblon_2GQG_27.pdb
  MOLSOFT 04032206203D

 29 31  0  0  1  0  0  0  0  0999 V2000
   78.9937   42.4770   42.6758 C   0  0  0  0  0  0  0  0  0  0  0  0
   78.1775   42.1850   41.5978 C   0  0  0  0  0  0  0  0  0  0  0  0
   77.2627   41.0661   41.4062 C   0  0  0  0  0  0  0  0  0  0  0  0
   77.0832   40.2006   42.2492 O   0  0  0  0  0  0  0  0  0  0  0  0
   76.7206   41.2146   40.1429 N   0  0  0  0  0  0  0  0  0  0  0  0
   77.2188   42.3428   39.5233 C   0  0  0  0  0  0  0  0  0  0  0  0
   76.9862   42.7635   38.3975 O   0  0  0  0  0  0  0  0  0  0  0  0
   78.1524   42.9514   40.4714 C   0  0  0  0  0  0  0  0  0  0  0  0
   78.9516   44.0681   40.3342 C   0  0  0  0  0  0  0  0  0  0  0  0
   79.7912   44.3755   41.3989 C   0  0  0  0  0  0  0  0  0  0  0  0
   79.8133   43.5931   42.5541 C   0  0  0  0  0  0  0  0  0  0  0  0
   75.7108   40.3635   39.5077 C   0  0  2  0  0  0  0  0  0  0  0  0
   74.3317   40.9360   39.7934 C   0  0  0  0  0  0  0  0  0  0  0  0
   74.1482   42.1221   40.0119 O   0  0  0  0  0  0  0  0  0  0  0  0
   73.2784   40.0583   39.7104 N   0  0  0  0  0  0  0  0  0  0  0  0
   73.3133   38.7132   39.4356 C   0  0  0  0  0  0  0  0  0  0  0  0
   72.2955   38.0433   39.3713 O   0  0  0  0  0  0  0  0  0  0  0  0
   74.6777   38.1280   39.1654 C   0  0  0  0  0  0  0  0  0  0  0  0
   75.7591   38.8928   39.9081 C   0  0  0  0  0  0  0  0  0  0  0  0
   79.0006   41.8609   43.5706 H   0  0  0  0  0  0  0  0  0  0  0  0
   78.9232   44.6721   39.4349 H   0  0  0  0  0  0  0  0  0  0  0  0
   80.4401   45.2412   41.3319 H   0  0  0  0  0  0  0  0  0  0  0  0
   80.4791   43.8589   43.3703 H   0  0  0  0  0  0  0  0  0  0  0  0
   75.8526   40.4516   38.4287 H   0  0  0  0  0  0  0  0  0  0  0  0
   72.3608   40.4549   39.8708 H   0  0  0  0  0  0  0  0  0  0  0  0
   74.6792   37.0821   39.4884 H   0  0  0  0  0  0  0  0  0  0  0  0
   74.8450   38.1501   38.0842 H   0  0  0  0  0  0  0  0  0  0  0  0
   76.7443   38.4685   39.6888 H   0  0  0  0  0  0  0  0  0  0  0  0
   75.5904   38.7736   40.9819 H   0  0  0  0  0  0  0  0  0  0  0  0
  1 20  1  0  0  0  0
  1  2  1  0  0  0  0
  1 11  2  0  0  0  0
  2  3  1  0  0  0  0
  2  8  2  0  0  0  0
  3  4  2  0  0  0  0
  3  5  1  0  0  0  0
  5  6  1  0  0  0  0
 12  5  1  0  0  0  0
  6  7  2  0  0  0  0
  6  8  1  0  0  0  0
  8  9  1  0  0  0  0
  9 21  1  0  0  0  0
  9 10  2  0  0  0  0
 10 22  1  0  0  0  0
 10 11  1  0  0  0  0
 11 23  1  0  0  0  0
 12 24  1  0  0  0  0
 12 13  1  0  0  0  0
 12 19  1  0  0  0  0
 13 14  2  0  0  0  0
 13 15  1  0  0  0  0
 15 25  1  0  0  0  0
 15 16  1  0  0  0  0
 16 17  2  0  0  0  0
 16 18  1  0  0  0  0
 18 26  1  0  0  0  0
 18 27  1  0  0  0  0
 18 19  1  0  0  0  0
 19 28  1  0  0  0  0
 19 29  1  0  0  0  0
M  ZZC   1 c1
M  ZZC   2 c2
M  ZZC   3 c3
M  ZZC   4 o1
M  ZZC   5 n1
M  ZZC   6 c4
M  ZZC   7 o2
M  ZZC   8 c5
M  ZZC   9 c6
M  ZZC  10 c7
M  ZZC  11 c8
M  ZZC  12 c9
M  ZZC  13 c10
M  ZZC  14 o3
M  ZZC  15 n2
M  ZZC  16 c11
M  ZZC  17 o4
M  ZZC  18 c12
M  ZZC  19 c13
M  ZZC  20 h11
M  ZZC  21 h61
M  ZZC  22 h71
M  ZZC  23 h81
M  ZZC  24 h91
M  ZZC  25 h21
M  ZZC  26 h121
M  ZZC  27 h122
M  ZZC  28 h131
M  ZZC  29 h132
M  ZZM   1 37
M  ZZI   1 125
M  ZZM   2 37
M  ZZI   2 124
M  ZZM   3 3
M  ZZI   3 121
M  ZZM   4 7
M  ZZI   4 81
M  ZZM   5 10
M  ZZI   5 192
M  ZZM   6 3
M  ZZI   6 121
M  ZZM   7 7
M  ZZI   7 81
M  ZZM   8 37
M  ZZI   8 124
M  ZZM   9 37
M  ZZI   9 125
M  ZZM  10 37
M  ZZI  10 125
M  ZZM  11 37
M  ZZI  11 125
M  ZZM  12 1
M  ZZI  12 113
M  ZZM  13 3
M  ZZI  13 121
M  ZZM  14 7
M  ZZI  14 81
M  ZZM  15 10
M  ZZI  15 191
M  ZZM  16 3
M  ZZI  16 121
M  ZZM  17 7
M  ZZI  17 81
M  ZZM  18 1
M  ZZI  18 112
M  ZZM  19 1
M  ZZI  19 112
M  ZZM  20 5
M  ZZI  20 1
M  ZZM  21 5
M  ZZI  21 1
M  ZZM  22 5
M  ZZI  22 1
M  ZZM  23 5
M  ZZI  23 1
M  ZZM  24 5
M  ZZI  24 1
M  ZZM  25 28
M  ZZI  25 11
M  ZZM  26 5
M  ZZI  26 1
M  ZZM  27 5
M  ZZI  27 1
M  ZZM  28 5
M  ZZI  28 1
M  ZZM  29 5
M  ZZI  29 1
M  END
> <IX>
1

> <NAME>
Cereblon_2GQG_27.pdb

> <Score>
-19.35969

> <Natom>
29

> <Nflex>
1

> <Hbond>
-3.366573

> <Hphob>
-3.574321

> <VwInt>
-22.729784

> <Dsolv>
12.106439

> <SolEl>
5.597717

> <Eintl>
1.513331

> <RecConf>
ND

> <projPath>
Cereblon_maps/

> <NAME_>
Cereblon_2GQG_27.pdb

$$$$
