Cereblon_3HLL_19.pdb
  MOLSOFT 04032206213D

 31 33  0  0  1  0  0  0  0  0999 V2000
   78.7311   41.7105   43.8962 N   0  0  0  0  0  0  0  0  0  0  0  0
   78.7885   42.4973   42.7343 C   0  0  0  0  0  0  0  0  0  0  0  0
   78.0733   42.1746   41.5927 C   0  0  0  0  0  0  0  0  0  0  0  0
   77.1616   41.0603   41.3704 C   0  0  0  0  0  0  0  0  0  0  0  0
   76.9419   40.1990   42.2086 O   0  0  0  0  0  0  0  0  0  0  0  0
   76.6683   41.2054   40.0893 N   0  0  0  0  0  0  0  0  0  0  0  0
   77.2028   42.3216   39.4793 C   0  0  0  0  0  0  0  0  0  0  0  0
   77.0035   42.7429   38.3472 O   0  0  0  0  0  0  0  0  0  0  0  0
   78.1143   42.9226   40.4552 C   0  0  0  0  0  0  0  0  0  0  0  0
   78.9355   44.0256   40.3429 C   0  0  0  0  0  0  0  0  0  0  0  0
   79.7259   44.3314   41.4448 C   0  0  0  0  0  0  0  0  0  0  0  0
   79.6580   43.5783   42.6189 C   0  0  0  0  0  0  0  0  0  0  0  0
   75.6538   40.3712   39.4416 C   0  0  2  0  0  0  0  0  0  0  0  0
   74.2818   40.9565   39.7311 C   0  0  0  0  0  0  0  0  0  0  0  0
   74.1132   42.1385   39.9808 O   0  0  0  0  0  0  0  0  0  0  0  0
   73.2181   40.0954   39.6163 N   0  0  0  0  0  0  0  0  0  0  0  0
   73.2391   38.7554   39.3138 C   0  0  0  0  0  0  0  0  0  0  0  0
   72.2127   38.1043   39.2083 O   0  0  0  0  0  0  0  0  0  0  0  0
   74.6007   38.1510   39.0674 C   0  0  0  0  0  0  0  0  0  0  0  0
   75.6791   38.8971   39.8331 C   0  0  0  0  0  0  0  0  0  0  0  0
   78.9751   42.1406   44.7869 H   0  0  0  0  0  0  0  0  0  0  0  0
   78.0247   40.9737   43.9263 H   0  0  0  0  0  0  0  0  0  0  0  0
   78.9656   44.6161   39.4348 H   0  0  0  0  0  0  0  0  0  0  0  0
   80.4024   45.1774   41.3964 H   0  0  0  0  0  0  0  0  0  0  0  0
   80.2921   43.8475   43.4578 H   0  0  0  0  0  0  0  0  0  0  0  0
   75.8010   40.4692   38.3648 H   0  0  0  0  0  0  0  0  0  0  0  0
   72.3037   40.5022   39.7692 H   0  0  0  0  0  0  0  0  0  0  0  0
   74.5812   37.1042   39.3870 H   0  0  0  0  0  0  0  0  0  0  0  0
   74.7918   38.1739   37.9903 H   0  0  0  0  0  0  0  0  0  0  0  0
   75.4907   38.7715   40.9031 H   0  0  0  0  0  0  0  0  0  0  0  0
   76.6631   38.4622   39.6299 H   0  0  0  0  0  0  0  0  0  0  0  0
  1  2  1  0  0  0  0
  1 21  1  0  0  0  0
  1 22  1  0  0  0  0
  2  3  1  0  0  0  0
  2 12  2  0  0  0  0
  3  9  2  0  0  0  0
  3  4  1  0  0  0  0
  4  5  2  0  0  0  0
  4  6  1  0  0  0  0
  6  7  1  0  0  0  0
 13  6  1  0  0  0  0
  7  8  2  0  0  0  0
  7  9  1  0  0  0  0
  9 10  1  0  0  0  0
 10 23  1  0  0  0  0
 10 11  2  0  0  0  0
 11 12  1  0  0  0  0
 11 24  1  0  0  0  0
 12 25  1  0  0  0  0
 13 26  1  0  0  0  0
 13 14  1  0  0  0  0
 13 20  1  0  0  0  0
 14 15  2  0  0  0  0
 14 16  1  0  0  0  0
 16 27  1  0  0  0  0
 16 17  1  0  0  0  0
 17 18  2  0  0  0  0
 17 19  1  0  0  0  0
 19 28  1  0  0  0  0
 19 29  1  0  0  0  0
 19 20  1  0  0  0  0
 20 30  1  0  0  0  0
 20 31  1  0  0  0  0
M  ZZC   1 n1
M  ZZC   2 c1
M  ZZC   3 c2
M  ZZC   4 c3
M  ZZC   5 o1
M  ZZC   6 n2
M  ZZC   7 c4
M  ZZC   8 o2
M  ZZC   9 c5
M  ZZC  10 c6
M  ZZC  11 c7
M  ZZC  12 c8
M  ZZC  13 c9
M  ZZC  14 c10
M  ZZC  15 o3
M  ZZC  16 n3
M  ZZC  17 c11
M  ZZC  18 o4
M  ZZC  19 c12
M  ZZC  20 c13
M  ZZC  21 h11
M  ZZC  22 h12
M  ZZC  23 h61
M  ZZC  24 h71
M  ZZC  25 h81
M  ZZC  26 h91
M  ZZC  27 h31
M  ZZC  28 h121
M  ZZC  29 h122
M  ZZC  30 h131
M  ZZC  31 h132
M  ZZM   1 40
M  ZZI   1 224
M  ZZM   2 37
M  ZZI   2 124
M  ZZM   3 37
M  ZZI   3 124
M  ZZM   4 3
M  ZZI   4 121
M  ZZM   5 7
M  ZZI   5 81
M  ZZM   6 10
M  ZZI   6 192
M  ZZM   7 3
M  ZZI   7 121
M  ZZM   8 7
M  ZZI   8 81
M  ZZM   9 37
M  ZZI   9 124
M  ZZM  10 37
M  ZZI  10 125
M  ZZM  11 37
M  ZZI  11 125
M  ZZM  12 37
M  ZZI  12 125
M  ZZM  13 1
M  ZZI  13 113
M  ZZM  14 3
M  ZZI  14 121
M  ZZM  15 7
M  ZZI  15 81
M  ZZM  16 10
M  ZZI  16 191
M  ZZM  17 3
M  ZZI  17 121
M  ZZM  18 7
M  ZZI  18 81
M  ZZM  19 1
M  ZZI  19 112
M  ZZM  20 1
M  ZZI  20 112
M  ZZM  21 28
M  ZZI  21 11
M  ZZM  22 28
M  ZZI  22 11
M  ZZM  23 5
M  ZZI  23 1
M  ZZM  24 5
M  ZZI  24 1
M  ZZM  25 5
M  ZZI  25 1
M  ZZM  26 5
M  ZZI  26 1
M  ZZM  27 28
M  ZZI  27 11
M  ZZM  28 5
M  ZZI  28 1
M  ZZM  29 5
M  ZZI  29 1
M  ZZM  30 5
M  ZZI  30 1
M  ZZM  31 5
M  ZZI  31 1
M  END
> <IX>
1

> <NAME>
Cereblon_3HLL_19.pdb

> <Score>
-21.34445

> <Natom>
31

> <Nflex>
1

> <Hbond>
-4.878175

> <Hphob>
-3.5172

> <VwInt>
-24.106482

> <Dsolv>
15.188398

> <SolEl>
6.644528

> <Eintl>
1.806084

> <RecConf>
ND

> <projPath>
Cereblon_maps/

> <NAME_>
Cereblon_3HLL_19.pdb

$$$$
