Cereblon_5L2T_2.pdb
  MOLSOFT 04032206263D

 31 33  0  0  1  0  0  0  0  0999 V2000
   78.8185   41.6830   43.8098 N   0  0  0  0  0  0  0  0  0  0  0  0
   78.9006   42.4344   42.6276 C   0  0  0  0  0  0  0  0  0  0  0  0
   78.0977   42.1638   41.5328 C   0  0  0  0  0  0  0  0  0  0  0  0
   77.1765   41.0532   41.3281 C   0  0  0  0  0  0  0  0  0  0  0  0
   76.9932   40.1741   42.1572 O   0  0  0  0  0  0  0  0  0  0  0  0
   76.6425   41.2138   40.0650 N   0  0  0  0  0  0  0  0  0  0  0  0
   77.1643   42.3329   39.4489 C   0  0  0  0  0  0  0  0  0  0  0  0
   76.9523   42.7517   38.3183 O   0  0  0  0  0  0  0  0  0  0  0  0
   78.0952   42.9307   40.4074 C   0  0  0  0  0  0  0  0  0  0  0  0
   78.9072   44.0392   40.2839 C   0  0  0  0  0  0  0  0  0  0  0  0
   79.7258   44.3398   41.3667 C   0  0  0  0  0  0  0  0  0  0  0  0
   79.7130   43.5595   42.5244 C   0  0  0  0  0  0  0  0  0  0  0  0
   75.6231   40.3761   39.4298 C   0  0  2  0  0  0  0  0  0  0  0  0
   74.2520   40.9552   39.7338 C   0  0  0  0  0  0  0  0  0  0  0  0
   74.0820   42.1352   39.9917 O   0  0  0  0  0  0  0  0  0  0  0  0
   73.1910   40.0907   39.6175 N   0  0  0  0  0  0  0  0  0  0  0  0
   73.2159   38.7531   39.3051 C   0  0  0  0  0  0  0  0  0  0  0  0
   72.1906   38.1014   39.1922 O   0  0  0  0  0  0  0  0  0  0  0  0
   74.5792   38.1519   39.0585 C   0  0  0  0  0  0  0  0  0  0  0  0
   75.6563   38.9024   39.8217 C   0  0  0  0  0  0  0  0  0  0  0  0
   79.5347   41.7860   44.5256 H   0  0  0  0  0  0  0  0  0  0  0  0
   78.2886   40.8098   43.7917 H   0  0  0  0  0  0  0  0  0  0  0  0
   78.8999   44.6448   39.3853 H   0  0  0  0  0  0  0  0  0  0  0  0
   80.3776   45.2050   41.3190 H   0  0  0  0  0  0  0  0  0  0  0  0
   80.3494   43.8392   43.3584 H   0  0  0  0  0  0  0  0  0  0  0  0
   75.7576   40.4744   38.3513 H   0  0  0  0  0  0  0  0  0  0  0  0
   72.2756   40.4933   39.7759 H   0  0  0  0  0  0  0  0  0  0  0  0
   74.5620   37.1053   39.3789 H   0  0  0  0  0  0  0  0  0  0  0  0
   74.7694   38.1733   37.9810 H   0  0  0  0  0  0  0  0  0  0  0  0
   75.4712   38.7768   40.8925 H   0  0  0  0  0  0  0  0  0  0  0  0
   76.6413   38.4715   39.6156 H   0  0  0  0  0  0  0  0  0  0  0  0
  1  2  1  0  0  0  0
  1 21  1  0  0  0  0
  1 22  1  0  0  0  0
  2  3  1  0  0  0  0
  2 12  2  0  0  0  0
  3  9  2  0  0  0  0
  3  4  1  0  0  0  0
  4  5  2  0  0  0  0
  4  6  1  0  0  0  0
  6  7  1  0  0  0  0
 13  6  1  0  0  0  0
  7  8  2  0  0  0  0
  7  9  1  0  0  0  0
  9 10  1  0  0  0  0
 10 23  1  0  0  0  0
 10 11  2  0  0  0  0
 11 12  1  0  0  0  0
 11 24  1  0  0  0  0
 12 25  1  0  0  0  0
 13 26  1  0  0  0  0
 13 14  1  0  0  0  0
 13 20  1  0  0  0  0
 14 15  2  0  0  0  0
 14 16  1  0  0  0  0
 16 27  1  0  0  0  0
 16 17  1  0  0  0  0
 17 18  2  0  0  0  0
 17 19  1  0  0  0  0
 19 28  1  0  0  0  0
 19 29  1  0  0  0  0
 19 20  1  0  0  0  0
 20 30  1  0  0  0  0
 20 31  1  0  0  0  0
M  ZZC   1 n1
M  ZZC   2 c1
M  ZZC   3 c2
M  ZZC   4 c3
M  ZZC   5 o1
M  ZZC   6 n2
M  ZZC   7 c4
M  ZZC   8 o2
M  ZZC   9 c5
M  ZZC  10 c6
M  ZZC  11 c7
M  ZZC  12 c8
M  ZZC  13 c9
M  ZZC  14 c10
M  ZZC  15 o3
M  ZZC  16 n3
M  ZZC  17 c11
M  ZZC  18 o4
M  ZZC  19 c12
M  ZZC  20 c13
M  ZZC  21 h11
M  ZZC  22 h12
M  ZZC  23 h61
M  ZZC  24 h71
M  ZZC  25 h81
M  ZZC  26 h91
M  ZZC  27 h31
M  ZZC  28 h121
M  ZZC  29 h122
M  ZZC  30 h131
M  ZZC  31 h132
M  ZZM   1 40
M  ZZI   1 224
M  ZZM   2 37
M  ZZI   2 124
M  ZZM   3 37
M  ZZI   3 124
M  ZZM   4 3
M  ZZI   4 121
M  ZZM   5 7
M  ZZI   5 81
M  ZZM   6 10
M  ZZI   6 192
M  ZZM   7 3
M  ZZI   7 121
M  ZZM   8 7
M  ZZI   8 81
M  ZZM   9 37
M  ZZI   9 124
M  ZZM  10 37
M  ZZI  10 125
M  ZZM  11 37
M  ZZI  11 125
M  ZZM  12 37
M  ZZI  12 125
M  ZZM  13 1
M  ZZI  13 113
M  ZZM  14 3
M  ZZI  14 121
M  ZZM  15 7
M  ZZI  15 81
M  ZZM  16 10
M  ZZI  16 191
M  ZZM  17 3
M  ZZI  17 121
M  ZZM  18 7
M  ZZI  18 81
M  ZZM  19 1
M  ZZI  19 112
M  ZZM  20 1
M  ZZI  20 112
M  ZZM  21 28
M  ZZI  21 11
M  ZZM  22 28
M  ZZI  22 11
M  ZZM  23 5
M  ZZI  23 1
M  ZZM  24 5
M  ZZI  24 1
M  ZZM  25 5
M  ZZI  25 1
M  ZZM  26 5
M  ZZI  26 1
M  ZZM  27 28
M  ZZI  27 11
M  ZZM  28 5
M  ZZI  28 1
M  ZZM  29 5
M  ZZI  29 1
M  ZZM  30 5
M  ZZI  30 1
M  ZZM  31 5
M  ZZI  31 1
M  END
> <IX>
1

> <NAME>
Cereblon_5L2T_2.pdb

> <Score>
-18.778295

> <Natom>
31

> <Nflex>
1

> <Hbond>
-3.682413

> <Hphob>
-3.513054

> <VwInt>
-24.319521

> <Dsolv>
15.111544

> <SolEl>
6.470695

> <Eintl>
1.678602

> <RecConf>
ND

> <projPath>
Cereblon_maps/

> <NAME_>
Cereblon_5L2T_2.pdb

$$$$
