Cereblon_3LQ5_22.pdb
  MOLSOFT 04032206213D

 29 31  0  0  1  0  0  0  0  0999 V2000
   79.8246   43.6074   42.5447 C   0  0  0  0  0  0  0  0  0  0  0  0
   79.0047   42.4926   42.6722 C   0  0  0  0  0  0  0  0  0  0  0  0
   78.1869   42.1966   41.5961 C   0  0  0  0  0  0  0  0  0  0  0  0
   77.2690   41.0787   41.4110 C   0  0  0  0  0  0  0  0  0  0  0  0
   77.0880   40.2186   42.2591 O   0  0  0  0  0  0  0  0  0  0  0  0
   76.7280   41.2209   40.1463 N   0  0  0  0  0  0  0  0  0  0  0  0
   77.2241   42.3479   39.5229 C   0  0  0  0  0  0  0  0  0  0  0  0
   76.9882   42.7656   38.3966 O   0  0  0  0  0  0  0  0  0  0  0  0
   78.1592   42.9595   40.4677 C   0  0  0  0  0  0  0  0  0  0  0  0
   78.9577   44.0759   40.3252 C   0  0  0  0  0  0  0  0  0  0  0  0
   79.8010   44.3850   41.3867 C   0  0  0  0  0  0  0  0  0  0  0  0
   75.7195   40.3660   39.5139 C   0  0  2  0  0  0  0  0  0  0  0  0
   74.3396   40.9343   39.8042 C   0  0  0  0  0  0  0  0  0  0  0  0
   74.1516   42.1204   40.0182 O   0  0  0  0  0  0  0  0  0  0  0  0
   73.2897   40.0518   39.7284 N   0  0  0  0  0  0  0  0  0  0  0  0
   73.3281   38.7060   39.4567 C   0  0  0  0  0  0  0  0  0  0  0  0
   72.3126   38.0321   39.4002 O   0  0  0  0  0  0  0  0  0  0  0  0
   74.6928   38.1248   39.1793 C   0  0  0  0  0  0  0  0  0  0  0  0
   75.7749   38.8953   39.9151 C   0  0  0  0  0  0  0  0  0  0  0  0
   80.4931   43.8752   43.3583 H   0  0  0  0  0  0  0  0  0  0  0  0
   79.0165   41.8772   43.5669 H   0  0  0  0  0  0  0  0  0  0  0  0
   78.9272   44.6766   39.4239 H   0  0  0  0  0  0  0  0  0  0  0  0
   80.4507   45.2491   41.3162 H   0  0  0  0  0  0  0  0  0  0  0  0
   75.8574   40.4545   38.4343 H   0  0  0  0  0  0  0  0  0  0  0  0
   72.3710   40.4451   39.8916 H   0  0  0  0  0  0  0  0  0  0  0  0
   74.7001   37.0793   39.5034 H   0  0  0  0  0  0  0  0  0  0  0  0
   74.8538   38.1461   38.0969 H   0  0  0  0  0  0  0  0  0  0  0  0
   75.6124   38.7752   40.9895 H   0  0  0  0  0  0  0  0  0  0  0  0
   76.7609   38.4740   39.6918 H   0  0  0  0  0  0  0  0  0  0  0  0
  1 20  1  0  0  0  0
  1  2  1  0  0  0  0
  1 11  2  0  0  0  0
  2 21  1  0  0  0  0
  2  3  2  0  0  0  0
  3  4  1  0  0  0  0
  3  9  1  0  0  0  0
  4  5  2  0  0  0  0
  4  6  1  0  0  0  0
  6  7  1  0  0  0  0
 12  6  1  0  0  0  0
  7  8  2  0  0  0  0
  7  9  1  0  0  0  0
  9 10  2  0  0  0  0
 10 22  1  0  0  0  0
 10 11  1  0  0  0  0
 11 23  1  0  0  0  0
 12 24  1  0  0  0  0
 12 13  1  0  0  0  0
 12 19  1  0  0  0  0
 13 14  2  0  0  0  0
 13 15  1  0  0  0  0
 15 25  1  0  0  0  0
 15 16  1  0  0  0  0
 16 17  2  0  0  0  0
 16 18  1  0  0  0  0
 18 26  1  0  0  0  0
 18 27  1  0  0  0  0
 18 19  1  0  0  0  0
 19 28  1  0  0  0  0
 19 29  1  0  0  0  0
M  ZZC   1 c1
M  ZZC   2 c2
M  ZZC   3 c3
M  ZZC   4 c4
M  ZZC   5 o1
M  ZZC   6 n1
M  ZZC   7 c5
M  ZZC   8 o2
M  ZZC   9 c6
M  ZZC  10 c7
M  ZZC  11 c8
M  ZZC  12 c9
M  ZZC  13 c10
M  ZZC  14 o3
M  ZZC  15 n2
M  ZZC  16 c11
M  ZZC  17 o4
M  ZZC  18 c12
M  ZZC  19 c13
M  ZZC  20 h11
M  ZZC  21 h21
M  ZZC  22 h71
M  ZZC  23 h81
M  ZZC  24 h91
M  ZZC  25 h01
M  ZZC  26 h121
M  ZZC  27 h122
M  ZZC  28 h131
M  ZZC  29 h132
M  ZZM   1 37
M  ZZI   1 125
M  ZZM   2 37
M  ZZI   2 125
M  ZZM   3 37
M  ZZI   3 124
M  ZZM   4 3
M  ZZI   4 121
M  ZZM   5 7
M  ZZI   5 81
M  ZZM   6 10
M  ZZI   6 192
M  ZZM   7 3
M  ZZI   7 121
M  ZZM   8 7
M  ZZI   8 81
M  ZZM   9 37
M  ZZI   9 124
M  ZZM  10 37
M  ZZI  10 125
M  ZZM  11 37
M  ZZI  11 125
M  ZZM  12 1
M  ZZI  12 113
M  ZZM  13 3
M  ZZI  13 121
M  ZZM  14 7
M  ZZI  14 81
M  ZZM  15 10
M  ZZI  15 191
M  ZZM  16 3
M  ZZI  16 121
M  ZZM  17 7
M  ZZI  17 81
M  ZZM  18 1
M  ZZI  18 112
M  ZZM  19 1
M  ZZI  19 112
M  ZZM  20 5
M  ZZI  20 1
M  ZZM  21 5
M  ZZI  21 1
M  ZZM  22 5
M  ZZI  22 1
M  ZZM  23 5
M  ZZI  23 1
M  ZZM  24 5
M  ZZI  24 1
M  ZZM  25 28
M  ZZI  25 11
M  ZZM  26 5
M  ZZI  26 1
M  ZZM  27 5
M  ZZI  27 1
M  ZZM  28 5
M  ZZI  28 1
M  ZZM  29 5
M  ZZI  29 1
M  END
> <IX>
1

> <NAME>
Cereblon_3LQ5_22.pdb

> <Score>
-19.416708

> <Natom>
29

> <Nflex>
1

> <Hbond>
-3.36249

> <Hphob>
-3.544452

> <VwInt>
-22.719452

> <Dsolv>
12.024936

> <SolEl>
5.578051

> <Eintl>
1.47402

> <RecConf>
ND

> <projPath>
Cereblon_maps/

> <NAME_>
Cereblon_3LQ5_22.pdb

$$$$
