Cereblon_5J8O_18.pdb
  MOLSOFT 04032206253D

 29 31  0  0  1  0  0  0  0  0999 V2000
   79.0037   42.4898   42.6729 C   0  0  0  0  0  0  0  0  0  0  0  0
   78.1860   42.1950   41.5965 C   0  0  0  0  0  0  0  0  0  0  0  0
   77.2679   41.0772   41.4110 C   0  0  0  0  0  0  0  0  0  0  0  0
   77.0870   40.2163   42.2583 O   0  0  0  0  0  0  0  0  0  0  0  0
   76.7274   41.2203   40.1462 N   0  0  0  0  0  0  0  0  0  0  0  0
   77.2239   42.3474   39.5234 C   0  0  0  0  0  0  0  0  0  0  0  0
   76.9883   42.7650   38.3971 O   0  0  0  0  0  0  0  0  0  0  0  0
   78.1591   42.9583   40.4682 C   0  0  0  0  0  0  0  0  0  0  0  0
   78.9581   44.0746   40.3269 C   0  0  0  0  0  0  0  0  0  0  0  0
   79.7998   44.3838   41.3895 C   0  0  0  0  0  0  0  0  0  0  0  0
   79.8227   43.6054   42.5472 C   0  0  0  0  0  0  0  0  0  0  0  0
   75.7189   40.3657   39.5127 C   0  0  2  0  0  0  0  0  0  0  0  0
   74.3390   40.9347   39.8016 C   0  0  0  0  0  0  0  0  0  0  0  0
   74.1523   42.1210   40.0161 O   0  0  0  0  0  0  0  0  0  0  0  0
   73.2885   40.0531   39.7256 N   0  0  0  0  0  0  0  0  0  0  0  0
   73.3258   38.7071   39.4549 C   0  0  0  0  0  0  0  0  0  0  0  0
   72.3103   38.0331   39.3987 O   0  0  0  0  0  0  0  0  0  0  0  0
   74.6905   38.1258   39.1776 C   0  0  0  0  0  0  0  0  0  0  0  0
   75.7730   38.8951   39.9142 C   0  0  0  0  0  0  0  0  0  0  0  0
   79.0133   41.8742   43.5680 H   0  0  0  0  0  0  0  0  0  0  0  0
   78.9271   44.6766   39.4265 H   0  0  0  0  0  0  0  0  0  0  0  0
   80.4474   45.2502   41.3207 H   0  0  0  0  0  0  0  0  0  0  0  0
   80.4890   43.8746   43.3616 H   0  0  0  0  0  0  0  0  0  0  0  0
   75.8587   40.4536   38.4334 H   0  0  0  0  0  0  0  0  0  0  0  0
   72.3697   40.4463   39.8882 H   0  0  0  0  0  0  0  0  0  0  0  0
   74.6979   37.0800   39.5009 H   0  0  0  0  0  0  0  0  0  0  0  0
   74.8517   38.1476   38.0954 H   0  0  0  0  0  0  0  0  0  0  0  0
   75.6102   38.7755   40.9890 H   0  0  0  0  0  0  0  0  0  0  0  0
   76.7585   38.4733   39.6915 H   0  0  0  0  0  0  0  0  0  0  0  0
  1 20  1  0  0  0  0
  1  2  1  0  0  0  0
  1 11  2  0  0  0  0
  2  3  1  0  0  0  0
  2  8  2  0  0  0  0
  3  4  2  0  0  0  0
  3  5  1  0  0  0  0
  5  6  1  0  0  0  0
 12  5  1  0  0  0  0
  6  7  2  0  0  0  0
  6  8  1  0  0  0  0
  8  9  1  0  0  0  0
  9 21  1  0  0  0  0
  9 10  2  0  0  0  0
 10 22  1  0  0  0  0
 10 11  1  0  0  0  0
 11 23  1  0  0  0  0
 12 24  1  0  0  0  0
 12 13  1  0  0  0  0
 12 19  1  0  0  0  0
 13 14  2  0  0  0  0
 13 15  1  0  0  0  0
 15 25  1  0  0  0  0
 15 16  1  0  0  0  0
 16 17  2  0  0  0  0
 16 18  1  0  0  0  0
 18 26  1  0  0  0  0
 18 27  1  0  0  0  0
 18 19  1  0  0  0  0
 19 28  1  0  0  0  0
 19 29  1  0  0  0  0
M  ZZC   1 c1
M  ZZC   2 c2
M  ZZC   3 c3
M  ZZC   4 o1
M  ZZC   5 n1
M  ZZC   6 c4
M  ZZC   7 o2
M  ZZC   8 c5
M  ZZC   9 c6
M  ZZC  10 c7
M  ZZC  11 c8
M  ZZC  12 c9
M  ZZC  13 c10
M  ZZC  14 o3
M  ZZC  15 n2
M  ZZC  16 c11
M  ZZC  17 o4
M  ZZC  18 c12
M  ZZC  19 c13
M  ZZC  20 h11
M  ZZC  21 h61
M  ZZC  22 h71
M  ZZC  23 h81
M  ZZC  24 h91
M  ZZC  25 h21
M  ZZC  26 h121
M  ZZC  27 h122
M  ZZC  28 h131
M  ZZC  29 h132
M  ZZM   1 37
M  ZZI   1 125
M  ZZM   2 37
M  ZZI   2 124
M  ZZM   3 3
M  ZZI   3 121
M  ZZM   4 7
M  ZZI   4 81
M  ZZM   5 10
M  ZZI   5 192
M  ZZM   6 3
M  ZZI   6 121
M  ZZM   7 7
M  ZZI   7 81
M  ZZM   8 37
M  ZZI   8 124
M  ZZM   9 37
M  ZZI   9 125
M  ZZM  10 37
M  ZZI  10 125
M  ZZM  11 37
M  ZZI  11 125
M  ZZM  12 1
M  ZZI  12 113
M  ZZM  13 3
M  ZZI  13 121
M  ZZM  14 7
M  ZZI  14 81
M  ZZM  15 10
M  ZZI  15 191
M  ZZM  16 3
M  ZZI  16 121
M  ZZM  17 7
M  ZZI  17 81
M  ZZM  18 1
M  ZZI  18 112
M  ZZM  19 1
M  ZZI  19 112
M  ZZM  20 5
M  ZZI  20 1
M  ZZM  21 5
M  ZZI  21 1
M  ZZM  22 5
M  ZZI  22 1
M  ZZM  23 5
M  ZZI  23 1
M  ZZM  24 5
M  ZZI  24 1
M  ZZM  25 28
M  ZZI  25 11
M  ZZM  26 5
M  ZZI  26 1
M  ZZM  27 5
M  ZZI  27 1
M  ZZM  28 5
M  ZZI  28 1
M  ZZM  29 5
M  ZZI  29 1
M  END
> <IX>
1

> <NAME>
Cereblon_5J8O_18.pdb

> <Score>
-19.332335

> <Natom>
29

> <Nflex>
1

> <Hbond>
-3.370063

> <Hphob>
-3.556397

> <VwInt>
-22.695456

> <Dsolv>
12.048102

> <SolEl>
5.672748

> <Eintl>
1.486793

> <RecConf>
ND

> <projPath>
Cereblon_maps/

> <NAME_>
Cereblon_5J8O_18.pdb

$$$$
