Cereblon_6VS3_26.pdb
  MOLSOFT 04032206293D

 31 33  0  0  1  0  0  0  0  0999 V2000
   81.6205   53.0776   19.7044 N   0  0  0  0  0  0  0  0  0  0  0  0
   81.9334   54.4426   19.7375 C   0  0  0  0  0  0  0  0  0  0  0  0
   81.2312   55.3388   20.5252 C   0  0  0  0  0  0  0  0  0  0  0  0
   80.0299   55.1250   21.3275 C   0  0  0  0  0  0  0  0  0  0  0  0
   79.4231   54.0653   21.3998 O   0  0  0  0  0  0  0  0  0  0  0  0
   79.7602   56.3265   21.9458 N   0  0  0  0  0  0  0  0  0  0  0  0
   80.6728   57.2928   21.5768 C   0  0  0  0  0  0  0  0  0  0  0  0
   80.7465   58.4692   21.9004 O   0  0  0  0  0  0  0  0  0  0  0  0
   81.6113   56.6390   20.6681 C   0  0  0  0  0  0  0  0  0  0  0  0
   82.7282   57.1524   20.0360 C   0  0  0  0  0  0  0  0  0  0  0  0
   83.4614   56.2704   19.2522 C   0  0  0  0  0  0  0  0  0  0  0  0
   83.0793   54.9339   19.1249 C   0  0  0  0  0  0  0  0  0  0  0  0
   78.6169   56.5118   22.8390 C   0  0  2  0  0  0  0  0  0  0  0  0
   77.4671   57.1886   22.1174 C   0  0  0  0  0  0  0  0  0  0  0  0
   77.3320   57.1810   20.9028 O   0  0  0  0  0  0  0  0  0  0  0  0
   76.5171   57.7385   22.9453 N   0  0  0  0  0  0  0  0  0  0  0  0
   76.4983   57.7901   24.3186 C   0  0  0  0  0  0  0  0  0  0  0  0
   75.5310   58.2108   24.9325 O   0  0  0  0  0  0  0  0  0  0  0  0
   77.7199   57.2480   25.0225 C   0  0  0  0  0  0  0  0  0  0  0  0
   78.9339   57.2858   24.1147 C   0  0  0  0  0  0  0  0  0  0  0  0
   82.0395   52.5292   18.9584 H   0  0  0  0  0  0  0  0  0  0  0  0
   80.6539   52.8421   19.9288 H   0  0  0  0  0  0  0  0  0  0  0  0
   83.0270   58.1894   20.1558 H   0  0  0  0  0  0  0  0  0  0  0  0
   84.3552   56.6210   18.7433 H   0  0  0  0  0  0  0  0  0  0  0  0
   83.6895   54.2612   18.5309 H   0  0  0  0  0  0  0  0  0  0  0  0
   78.2510   55.5148   23.0993 H   0  0  0  0  0  0  0  0  0  0  0  0
   75.7240   58.1588   22.4795 H   0  0  0  0  0  0  0  0  0  0  0  0
   77.9067   57.8462   25.9200 H   0  0  0  0  0  0  0  0  0  0  0  0
   77.5097   56.2222   25.3349 H   0  0  0  0  0  0  0  0  0  0  0  0
   79.1861   58.3280   23.8919 H   0  0  0  0  0  0  0  0  0  0  0  0
   79.7965   56.8523   24.6288 H   0  0  0  0  0  0  0  0  0  0  0  0
  1  2  1  0  0  0  0
  1 21  1  0  0  0  0
  1 22  1  0  0  0  0
  2  3  1  0  0  0  0
  2 12  2  0  0  0  0
  3  9  2  0  0  0  0
  3  4  1  0  0  0  0
  4  5  2  0  0  0  0
  4  6  1  0  0  0  0
  6  7  1  0  0  0  0
 13  6  1  0  0  0  0
  7  8  2  0  0  0  0
  7  9  1  0  0  0  0
  9 10  1  0  0  0  0
 10 23  1  0  0  0  0
 10 11  2  0  0  0  0
 11 12  1  0  0  0  0
 11 24  1  0  0  0  0
 12 25  1  0  0  0  0
 13 26  1  0  0  0  0
 13 14  1  0  0  0  0
 13 20  1  0  0  0  0
 14 15  2  0  0  0  0
 14 16  1  0  0  0  0
 16 27  1  0  0  0  0
 16 17  1  0  0  0  0
 17 18  2  0  0  0  0
 17 19  1  0  0  0  0
 19 28  1  0  0  0  0
 19 29  1  0  0  0  0
 19 20  1  0  0  0  0
 20 30  1  0  0  0  0
 20 31  1  0  0  0  0
M  ZZC   1 n1
M  ZZC   2 c1
M  ZZC   3 c2
M  ZZC   4 c3
M  ZZC   5 o1
M  ZZC   6 n2
M  ZZC   7 c4
M  ZZC   8 o2
M  ZZC   9 c5
M  ZZC  10 c6
M  ZZC  11 c7
M  ZZC  12 c8
M  ZZC  13 c9
M  ZZC  14 c10
M  ZZC  15 o3
M  ZZC  16 n3
M  ZZC  17 c11
M  ZZC  18 o4
M  ZZC  19 c12
M  ZZC  20 c13
M  ZZC  21 h11
M  ZZC  22 h12
M  ZZC  23 h61
M  ZZC  24 h71
M  ZZC  25 h81
M  ZZC  26 h91
M  ZZC  27 h31
M  ZZC  28 h121
M  ZZC  29 h122
M  ZZC  30 h131
M  ZZC  31 h132
M  ZZM   1 40
M  ZZI   1 224
M  ZZM   2 37
M  ZZI   2 124
M  ZZM   3 37
M  ZZI   3 124
M  ZZM   4 3
M  ZZI   4 121
M  ZZM   5 7
M  ZZI   5 81
M  ZZM   6 10
M  ZZI   6 192
M  ZZM   7 3
M  ZZI   7 121
M  ZZM   8 7
M  ZZI   8 81
M  ZZM   9 37
M  ZZI   9 124
M  ZZM  10 37
M  ZZI  10 125
M  ZZM  11 37
M  ZZI  11 125
M  ZZM  12 37
M  ZZI  12 125
M  ZZM  13 1
M  ZZI  13 113
M  ZZM  14 3
M  ZZI  14 121
M  ZZM  15 7
M  ZZI  15 81
M  ZZM  16 10
M  ZZI  16 191
M  ZZM  17 3
M  ZZI  17 121
M  ZZM  18 7
M  ZZI  18 81
M  ZZM  19 1
M  ZZI  19 112
M  ZZM  20 1
M  ZZI  20 112
M  ZZM  21 28
M  ZZI  21 11
M  ZZM  22 28
M  ZZI  22 11
M  ZZM  23 5
M  ZZI  23 1
M  ZZM  24 5
M  ZZI  24 1
M  ZZM  25 5
M  ZZI  25 1
M  ZZM  26 5
M  ZZI  26 1
M  ZZM  27 28
M  ZZI  27 11
M  ZZM  28 5
M  ZZI  28 1
M  ZZM  29 5
M  ZZI  29 1
M  ZZM  30 5
M  ZZI  30 1
M  ZZM  31 5
M  ZZI  31 1
M  END
> <IX>
1

> <NAME>
Cereblon_6VS3_26.pdb

> <Score>
-24.041325

> <Natom>
31

> <Nflex>
1

> <Hbond>
-4.635105

> <Hphob>
-3.380374

> <VwInt>
-24.803655

> <Dsolv>
13.951497

> <SolEl>
4.825824

> <Eintl>
0.842218

> <RecConf>
ND

> <projPath>
Cereblon_maps/

> <NAME_>
Cereblon_6VS3_26.pdb

$$$$
