Cereblon_5P9J_9.pdb
  MOLSOFT 04032206263D

 31 33  0  0  1  0  0  0  0  0999 V2000
   78.0758   40.6173   42.6912 N   0  0  0  0  0  0  0  0  0  0  0  0
   78.1358   41.7149   41.8173 C   0  0  0  0  0  0  0  0  0  0  0  0
   77.3167   41.8201   40.7017 C   0  0  0  0  0  0  0  0  0  0  0  0
   76.2501   40.9366   40.2362 C   0  0  0  0  0  0  0  0  0  0  0  0
   75.9936   39.8478   40.7306 O   0  0  0  0  0  0  0  0  0  0  0  0
   75.6406   41.5745   39.1716 N   0  0  0  0  0  0  0  0  0  0  0  0
   76.3718   42.6860   38.8038 C   0  0  0  0  0  0  0  0  0  0  0  0
   76.2773   43.3939   37.8124 O   0  0  0  0  0  0  0  0  0  0  0  0
   77.4016   42.8608   39.8279 C   0  0  0  0  0  0  0  0  0  0  0  0
   78.3469   43.8604   39.9684 C   0  0  0  0  0  0  0  0  0  0  0  0
   79.2060   43.7654   41.0561 C   0  0  0  0  0  0  0  0  0  0  0  0
   79.0983   42.7117   41.9655 C   0  0  0  0  0  0  0  0  0  0  0  0
   74.4007   41.0648   38.5582 C   0  0  1  0  0  0  0  0  0  0  0  0
   73.2496   41.3306   39.5191 C   0  0  0  0  0  0  0  0  0  0  0  0
   73.4109   41.6071   40.6954 O   0  0  0  0  0  0  0  0  0  0  0  0
   71.9866   41.1861   39.0032 N   0  0  0  0  0  0  0  0  0  0  0  0
   71.6257   40.9525   37.7016 C   0  0  0  0  0  0  0  0  0  0  0  0
   70.4684   40.7069   37.3983 O   0  0  0  0  0  0  0  0  0  0  0  0
   72.7553   40.9600   36.6926 C   0  0  0  0  0  0  0  0  0  0  0  0
   73.9836   41.6873   37.2248 C   0  0  0  0  0  0  0  0  0  0  0  0
   78.6506   40.5984   43.5325 H   0  0  0  0  0  0  0  0  0  0  0  0
   77.2718   39.9905   42.6326 H   0  0  0  0  0  0  0  0  0  0  0  0
   78.4139   44.6838   39.2660 H   0  0  0  0  0  0  0  0  0  0  0  0
   79.9657   44.5262   41.2063 H   0  0  0  0  0  0  0  0  0  0  0  0
   79.7837   42.6720   42.8063 H   0  0  0  0  0  0  0  0  0  0  0  0
   74.5016   39.9764   38.4714 H   0  0  0  0  0  0  0  0  0  0  0  0
   71.2268   41.2786   39.6648 H   0  0  0  0  0  0  0  0  0  0  0  0
   72.9981   39.9214   36.4445 H   0  0  0  0  0  0  0  0  0  0  0  0
   72.4034   41.4530   35.7806 H   0  0  0  0  0  0  0  0  0  0  0  0
   74.7870   41.6396   36.4889 H   0  0  0  0  0  0  0  0  0  0  0  0
   73.7459   42.7498   37.3547 H   0  0  0  0  0  0  0  0  0  0  0  0
  1  2  1  0  0  0  0
  1 21  1  0  0  0  0
  1 22  1  0  0  0  0
  2  3  1  0  0  0  0
  2 12  2  0  0  0  0
  3  9  2  0  0  0  0
  3  4  1  0  0  0  0
  4  5  2  0  0  0  0
  4  6  1  0  0  0  0
  6  7  1  0  0  0  0
 13  6  1  0  0  0  0
  7  8  2  0  0  0  0
  7  9  1  0  0  0  0
  9 10  1  0  0  0  0
 10 23  1  0  0  0  0
 10 11  2  0  0  0  0
 11 12  1  0  0  0  0
 11 24  1  0  0  0  0
 12 25  1  0  0  0  0
 13 26  1  0  0  0  0
 13 14  1  0  0  0  0
 13 20  1  0  0  0  0
 14 15  2  0  0  0  0
 14 16  1  0  0  0  0
 16 27  1  0  0  0  0
 16 17  1  0  0  0  0
 17 18  2  0  0  0  0
 17 19  1  0  0  0  0
 19 28  1  0  0  0  0
 19 29  1  0  0  0  0
 19 20  1  0  0  0  0
 20 30  1  0  0  0  0
 20 31  1  0  0  0  0
M  ZZC   1 n1
M  ZZC   2 c1
M  ZZC   3 c2
M  ZZC   4 c3
M  ZZC   5 o1
M  ZZC   6 n2
M  ZZC   7 c4
M  ZZC   8 o2
M  ZZC   9 c5
M  ZZC  10 c6
M  ZZC  11 c7
M  ZZC  12 c8
M  ZZC  13 c9
M  ZZC  14 c10
M  ZZC  15 o3
M  ZZC  16 n3
M  ZZC  17 c11
M  ZZC  18 o4
M  ZZC  19 c12
M  ZZC  20 c13
M  ZZC  21 h11
M  ZZC  22 h12
M  ZZC  23 h61
M  ZZC  24 h71
M  ZZC  25 h81
M  ZZC  26 h91
M  ZZC  27 h31
M  ZZC  28 h121
M  ZZC  29 h122
M  ZZC  30 h131
M  ZZC  31 h132
M  ZZM   1 40
M  ZZI   1 224
M  ZZM   2 37
M  ZZI   2 124
M  ZZM   3 37
M  ZZI   3 124
M  ZZM   4 3
M  ZZI   4 121
M  ZZM   5 7
M  ZZI   5 81
M  ZZM   6 10
M  ZZI   6 192
M  ZZM   7 3
M  ZZI   7 121
M  ZZM   8 7
M  ZZI   8 81
M  ZZM   9 37
M  ZZI   9 124
M  ZZM  10 37
M  ZZI  10 125
M  ZZM  11 37
M  ZZI  11 125
M  ZZM  12 37
M  ZZI  12 125
M  ZZM  13 1
M  ZZI  13 113
M  ZZM  14 3
M  ZZI  14 121
M  ZZM  15 7
M  ZZI  15 81
M  ZZM  16 10
M  ZZI  16 191
M  ZZM  17 3
M  ZZI  17 121
M  ZZM  18 7
M  ZZI  18 81
M  ZZM  19 1
M  ZZI  19 112
M  ZZM  20 1
M  ZZI  20 112
M  ZZM  21 28
M  ZZI  21 11
M  ZZM  22 28
M  ZZI  22 11
M  ZZM  23 5
M  ZZI  23 1
M  ZZM  24 5
M  ZZI  24 1
M  ZZM  25 5
M  ZZI  25 1
M  ZZM  26 5
M  ZZI  26 1
M  ZZM  27 28
M  ZZI  27 11
M  ZZM  28 5
M  ZZI  28 1
M  ZZM  29 5
M  ZZI  29 1
M  ZZM  30 5
M  ZZI  30 1
M  ZZM  31 5
M  ZZI  31 1
M  END
> <IX>
1

> <NAME>
Cereblon_5P9J_9.pdb

> <Score>
-14.878629

> <Natom>
31

> <Nflex>
1

> <Hbond>
-2.717799

> <Hphob>
-3.703371

> <VwInt>
-27.044584

> <Dsolv>
17.238872

> <SolEl>
6.829708

> <Eintl>
5.810806

> <RecConf>
ND

> <projPath>
Cereblon_maps/

> <NAME_>
Cereblon_5P9J_9.pdb

$$$$
