Cereblon_3IK3_5.pdb
  MOLSOFT 04032206213D

 31 33  0  0  1  0  0  0  0  0999 V2000
   78.8177   41.6845   43.8124 N   0  0  0  0  0  0  0  0  0  0  0  0
   78.9027   42.4336   42.6287 C   0  0  0  0  0  0  0  0  0  0  0  0
   78.0992   42.1635   41.5340 C   0  0  0  0  0  0  0  0  0  0  0  0
   77.1781   41.0527   41.3294 C   0  0  0  0  0  0  0  0  0  0  0  0
   76.9943   40.1737   42.1584 O   0  0  0  0  0  0  0  0  0  0  0  0
   76.6455   41.2129   40.0657 N   0  0  0  0  0  0  0  0  0  0  0  0
   77.1659   42.3328   39.4498 C   0  0  0  0  0  0  0  0  0  0  0  0
   76.9528   42.7531   38.3199 O   0  0  0  0  0  0  0  0  0  0  0  0
   78.0966   42.9306   40.4085 C   0  0  0  0  0  0  0  0  0  0  0  0
   78.9079   44.0398   40.2858 C   0  0  0  0  0  0  0  0  0  0  0  0
   79.7254   44.3409   41.3688 C   0  0  0  0  0  0  0  0  0  0  0  0
   79.7126   43.5606   42.5266 C   0  0  0  0  0  0  0  0  0  0  0  0
   75.6256   40.3754   39.4308 C   0  0  2  0  0  0  0  0  0  0  0  0
   74.2543   40.9536   39.7362 C   0  0  0  0  0  0  0  0  0  0  0  0
   74.0838   42.1339   39.9924 O   0  0  0  0  0  0  0  0  0  0  0  0
   73.1938   40.0879   39.6240 N   0  0  0  0  0  0  0  0  0  0  0  0
   73.2188   38.7499   39.3128 C   0  0  0  0  0  0  0  0  0  0  0  0
   72.1941   38.0964   39.2055 O   0  0  0  0  0  0  0  0  0  0  0  0
   74.5820   38.1509   39.0601 C   0  0  0  0  0  0  0  0  0  0  0  0
   75.6601   38.9013   39.8217 C   0  0  0  0  0  0  0  0  0  0  0  0
   79.5378   41.7853   44.5246 H   0  0  0  0  0  0  0  0  0  0  0  0
   78.2978   40.8057   43.7889 H   0  0  0  0  0  0  0  0  0  0  0  0
   78.9003   44.6455   39.3873 H   0  0  0  0  0  0  0  0  0  0  0  0
   80.3758   45.2071   41.3214 H   0  0  0  0  0  0  0  0  0  0  0  0
   80.3475   43.8417   43.3613 H   0  0  0  0  0  0  0  0  0  0  0  0
   75.7587   40.4742   38.3523 H   0  0  0  0  0  0  0  0  0  0  0  0
   72.2784   40.4896   39.7844 H   0  0  0  0  0  0  0  0  0  0  0  0
   74.5672   37.1036   39.3784 H   0  0  0  0  0  0  0  0  0  0  0  0
   74.7690   38.1746   37.9820 H   0  0  0  0  0  0  0  0  0  0  0  0
   75.4767   38.7746   40.8926 H   0  0  0  0  0  0  0  0  0  0  0  0
   76.6449   38.4707   39.6138 H   0  0  0  0  0  0  0  0  0  0  0  0
  1  2  1  0  0  0  0
  1 21  1  0  0  0  0
  1 22  1  0  0  0  0
  2  3  1  0  0  0  0
  2 12  2  0  0  0  0
  3  9  2  0  0  0  0
  3  4  1  0  0  0  0
  4  5  2  0  0  0  0
  4  6  1  0  0  0  0
  6  7  1  0  0  0  0
 13  6  1  0  0  0  0
  7  8  2  0  0  0  0
  7  9  1  0  0  0  0
  9 10  1  0  0  0  0
 10 23  1  0  0  0  0
 10 11  2  0  0  0  0
 11 12  1  0  0  0  0
 11 24  1  0  0  0  0
 12 25  1  0  0  0  0
 13 26  1  0  0  0  0
 13 14  1  0  0  0  0
 13 20  1  0  0  0  0
 14 15  2  0  0  0  0
 14 16  1  0  0  0  0
 16 27  1  0  0  0  0
 16 17  1  0  0  0  0
 17 18  2  0  0  0  0
 17 19  1  0  0  0  0
 19 28  1  0  0  0  0
 19 29  1  0  0  0  0
 19 20  1  0  0  0  0
 20 30  1  0  0  0  0
 20 31  1  0  0  0  0
M  ZZC   1 n1
M  ZZC   2 c1
M  ZZC   3 c2
M  ZZC   4 c3
M  ZZC   5 o1
M  ZZC   6 n2
M  ZZC   7 c4
M  ZZC   8 o2
M  ZZC   9 c5
M  ZZC  10 c6
M  ZZC  11 c7
M  ZZC  12 c8
M  ZZC  13 c9
M  ZZC  14 c10
M  ZZC  15 o3
M  ZZC  16 n3
M  ZZC  17 c11
M  ZZC  18 o4
M  ZZC  19 c12
M  ZZC  20 c13
M  ZZC  21 h11
M  ZZC  22 h12
M  ZZC  23 h61
M  ZZC  24 h71
M  ZZC  25 h81
M  ZZC  26 h91
M  ZZC  27 h31
M  ZZC  28 h121
M  ZZC  29 h122
M  ZZC  30 h131
M  ZZC  31 h132
M  ZZM   1 40
M  ZZI   1 224
M  ZZM   2 37
M  ZZI   2 124
M  ZZM   3 37
M  ZZI   3 124
M  ZZM   4 3
M  ZZI   4 121
M  ZZM   5 7
M  ZZI   5 81
M  ZZM   6 10
M  ZZI   6 192
M  ZZM   7 3
M  ZZI   7 121
M  ZZM   8 7
M  ZZI   8 81
M  ZZM   9 37
M  ZZI   9 124
M  ZZM  10 37
M  ZZI  10 125
M  ZZM  11 37
M  ZZI  11 125
M  ZZM  12 37
M  ZZI  12 125
M  ZZM  13 1
M  ZZI  13 113
M  ZZM  14 3
M  ZZI  14 121
M  ZZM  15 7
M  ZZI  15 81
M  ZZM  16 10
M  ZZI  16 191
M  ZZM  17 3
M  ZZI  17 121
M  ZZM  18 7
M  ZZI  18 81
M  ZZM  19 1
M  ZZI  19 112
M  ZZM  20 1
M  ZZI  20 112
M  ZZM  21 28
M  ZZI  21 11
M  ZZM  22 28
M  ZZI  22 11
M  ZZM  23 5
M  ZZI  23 1
M  ZZM  24 5
M  ZZI  24 1
M  ZZM  25 5
M  ZZI  25 1
M  ZZM  26 5
M  ZZI  26 1
M  ZZM  27 28
M  ZZI  27 11
M  ZZM  28 5
M  ZZI  28 1
M  ZZM  29 5
M  ZZI  29 1
M  ZZM  30 5
M  ZZI  30 1
M  ZZM  31 5
M  ZZI  31 1
M  END
> <IX>
1

> <NAME>
Cereblon_3IK3_5.pdb

> <Score>
-18.516254

> <Natom>
31

> <Nflex>
1

> <Hbond>
-3.676324

> <Hphob>
-3.571883

> <VwInt>
-24.254037

> <Dsolv>
15.212576

> <SolEl>
6.706816

> <Eintl>
1.660189

> <RecConf>
ND

> <projPath>
Cereblon_maps/

> <NAME_>
Cereblon_3IK3_5.pdb

$$$$
