Cereblon_5TOB_9.pdb
  MOLSOFT 04032206273D

 31 33  0  0  1  0  0  0  0  0999 V2000
   78.8136   41.6778   43.8186 N   0  0  0  0  0  0  0  0  0  0  0  0
   78.9077   42.4222   42.6321 C   0  0  0  0  0  0  0  0  0  0  0  0
   78.1011   42.1576   41.5382 C   0  0  0  0  0  0  0  0  0  0  0  0
   77.1803   41.0469   41.3311 C   0  0  0  0  0  0  0  0  0  0  0  0
   76.9993   40.1643   42.1568 O   0  0  0  0  0  0  0  0  0  0  0  0
   76.6464   41.2106   40.0683 N   0  0  0  0  0  0  0  0  0  0  0  0
   77.1672   42.3315   39.4544 C   0  0  0  0  0  0  0  0  0  0  0  0
   76.9541   42.7544   38.3256 O   0  0  0  0  0  0  0  0  0  0  0  0
   78.0984   42.9268   40.4142 C   0  0  0  0  0  0  0  0  0  0  0  0
   78.9101   44.0362   40.2938 C   0  0  0  0  0  0  0  0  0  0  0  0
   79.7255   44.3365   41.3788 C   0  0  0  0  0  0  0  0  0  0  0  0
   79.7124   43.5536   42.5348 C   0  0  0  0  0  0  0  0  0  0  0  0
   75.6265   40.3744   39.4316 C   0  0  2  0  0  0  0  0  0  0  0  0
   74.2553   40.9533   39.7360 C   0  0  0  0  0  0  0  0  0  0  0  0
   74.0851   42.1332   39.9940 O   0  0  0  0  0  0  0  0  0  0  0  0
   73.1944   40.0887   39.6195 N   0  0  0  0  0  0  0  0  0  0  0  0
   73.2187   38.7504   39.3100 C   0  0  0  0  0  0  0  0  0  0  0  0
   72.1936   38.0975   39.2025 O   0  0  0  0  0  0  0  0  0  0  0  0
   74.5816   38.1504   39.0581 C   0  0  0  0  0  0  0  0  0  0  0  0
   75.6592   38.9000   39.8214 C   0  0  0  0  0  0  0  0  0  0  0  0
   79.5539   41.7602   44.5119 H   0  0  0  0  0  0  0  0  0  0  0  0
   78.3244   40.7825   43.7767 H   0  0  0  0  0  0  0  0  0  0  0  0
   78.9025   44.6441   39.3969 H   0  0  0  0  0  0  0  0  0  0  0  0
   80.3737   45.2048   41.3345 H   0  0  0  0  0  0  0  0  0  0  0  0
   80.3435   43.8356   43.3719 H   0  0  0  0  0  0  0  0  0  0  0  0
   75.7618   40.4740   38.3534 H   0  0  0  0  0  0  0  0  0  0  0  0
   72.2792   40.4911   39.7796 H   0  0  0  0  0  0  0  0  0  0  0  0
   74.5657   37.1022   39.3757 H   0  0  0  0  0  0  0  0  0  0  0  0
   74.7709   38.1753   37.9807 H   0  0  0  0  0  0  0  0  0  0  0  0
   75.4743   38.7726   40.8919 H   0  0  0  0  0  0  0  0  0  0  0  0
   76.6439   38.4684   39.6149 H   0  0  0  0  0  0  0  0  0  0  0  0
  1  2  1  0  0  0  0
  1 21  1  0  0  0  0
  1 22  1  0  0  0  0
  2  3  1  0  0  0  0
  2 12  2  0  0  0  0
  3  9  2  0  0  0  0
  3  4  1  0  0  0  0
  4  5  2  0  0  0  0
  4  6  1  0  0  0  0
  6  7  1  0  0  0  0
 13  6  1  0  0  0  0
  7  8  2  0  0  0  0
  7  9  1  0  0  0  0
  9 10  1  0  0  0  0
 10 23  1  0  0  0  0
 10 11  2  0  0  0  0
 11 12  1  0  0  0  0
 11 24  1  0  0  0  0
 12 25  1  0  0  0  0
 13 26  1  0  0  0  0
 13 14  1  0  0  0  0
 13 20  1  0  0  0  0
 14 15  2  0  0  0  0
 14 16  1  0  0  0  0
 16 27  1  0  0  0  0
 16 17  1  0  0  0  0
 17 18  2  0  0  0  0
 17 19  1  0  0  0  0
 19 28  1  0  0  0  0
 19 29  1  0  0  0  0
 19 20  1  0  0  0  0
 20 30  1  0  0  0  0
 20 31  1  0  0  0  0
M  ZZC   1 n1
M  ZZC   2 c1
M  ZZC   3 c2
M  ZZC   4 c3
M  ZZC   5 o1
M  ZZC   6 n2
M  ZZC   7 c4
M  ZZC   8 o2
M  ZZC   9 c5
M  ZZC  10 c6
M  ZZC  11 c7
M  ZZC  12 c8
M  ZZC  13 c9
M  ZZC  14 c10
M  ZZC  15 o3
M  ZZC  16 n3
M  ZZC  17 c11
M  ZZC  18 o4
M  ZZC  19 c12
M  ZZC  20 c13
M  ZZC  21 h11
M  ZZC  22 h12
M  ZZC  23 h61
M  ZZC  24 h71
M  ZZC  25 h81
M  ZZC  26 h91
M  ZZC  27 h31
M  ZZC  28 h121
M  ZZC  29 h122
M  ZZC  30 h131
M  ZZC  31 h132
M  ZZM   1 40
M  ZZI   1 224
M  ZZM   2 37
M  ZZI   2 124
M  ZZM   3 37
M  ZZI   3 124
M  ZZM   4 3
M  ZZI   4 121
M  ZZM   5 7
M  ZZI   5 81
M  ZZM   6 10
M  ZZI   6 192
M  ZZM   7 3
M  ZZI   7 121
M  ZZM   8 7
M  ZZI   8 81
M  ZZM   9 37
M  ZZI   9 124
M  ZZM  10 37
M  ZZI  10 125
M  ZZM  11 37
M  ZZI  11 125
M  ZZM  12 37
M  ZZI  12 125
M  ZZM  13 1
M  ZZI  13 113
M  ZZM  14 3
M  ZZI  14 121
M  ZZM  15 7
M  ZZI  15 81
M  ZZM  16 10
M  ZZI  16 191
M  ZZM  17 3
M  ZZI  17 121
M  ZZM  18 7
M  ZZI  18 81
M  ZZM  19 1
M  ZZI  19 112
M  ZZM  20 1
M  ZZI  20 112
M  ZZM  21 28
M  ZZI  21 11
M  ZZM  22 28
M  ZZI  22 11
M  ZZM  23 5
M  ZZI  23 1
M  ZZM  24 5
M  ZZI  24 1
M  ZZM  25 5
M  ZZI  25 1
M  ZZM  26 5
M  ZZI  26 1
M  ZZM  27 28
M  ZZI  27 11
M  ZZM  28 5
M  ZZI  28 1
M  ZZM  29 5
M  ZZI  29 1
M  ZZM  30 5
M  ZZI  30 1
M  ZZM  31 5
M  ZZI  31 1
M  END
> <IX>
1

> <NAME>
Cereblon_5TOB_9.pdb

> <Score>
-18.297673

> <Natom>
31

> <Nflex>
1

> <Hbond>
-3.702005

> <Hphob>
-3.52763

> <VwInt>
-24.321694

> <Dsolv>
15.189503

> <SolEl>
7.190352

> <Eintl>
1.693078

> <RecConf>
ND

> <projPath>
Cereblon_maps/

> <NAME_>
Cereblon_5TOB_9.pdb

$$$$
