Cereblon_5MO4_2.pdb
  MOLSOFT 04032206263D

 31 33  0  0  1  0  0  0  0  0999 V2000
   75.3841   36.6191   39.2010 N   0  0  0  0  0  0  0  0  0  0  0  0
   75.6550   37.8906   39.7311 C   0  0  0  0  0  0  0  0  0  0  0  0
   75.0203   39.0333   39.2692 C   0  0  0  0  0  0  0  0  0  0  0  0
   73.9634   39.1756   38.2679 C   0  0  0  0  0  0  0  0  0  0  0  0
   73.4461   38.2368   37.6786 O   0  0  0  0  0  0  0  0  0  0  0  0
   73.7034   40.5270   38.1568 N   0  0  0  0  0  0  0  0  0  0  0  0
   74.4625   41.2395   39.0680 C   0  0  0  0  0  0  0  0  0  0  0  0
   74.4534   42.4287   39.3452 O   0  0  0  0  0  0  0  0  0  0  0  0
   75.3319   40.2742   39.7319 C   0  0  0  0  0  0  0  0  0  0  0  0
   76.3230   40.4856   40.6717 C   0  0  0  0  0  0  0  0  0  0  0  0
   76.9978   39.3627   41.1301 C   0  0  0  0  0  0  0  0  0  0  0  0
   76.6751   38.0899   40.6580 C   0  0  0  0  0  0  0  0  0  0  0  0
   72.6769   41.0658   37.2519 C   0  0  1  0  0  0  0  0  0  0  0  0
   71.3669   41.2712   38.0059 C   0  0  0  0  0  0  0  0  0  0  0  0
   71.0498   40.6180   38.9892 O   0  0  0  0  0  0  0  0  0  0  0  0
   70.4991   42.1906   37.4623 N   0  0  0  0  0  0  0  0  0  0  0  0
   70.6946   43.0382   36.4035 C   0  0  0  0  0  0  0  0  0  0  0  0
   69.8724   43.8943   36.1144 O   0  0  0  0  0  0  0  0  0  0  0  0
   71.9683   42.8254   35.6248 C   0  0  0  0  0  0  0  0  0  0  0  0
   73.0929   42.3452   36.5286 C   0  0  0  0  0  0  0  0  0  0  0  0
   75.7409   35.7952   39.6802 H   0  0  0  0  0  0  0  0  0  0  0  0
   74.5547   36.5131   38.6141 H   0  0  0  0  0  0  0  0  0  0  0  0
   76.5777   41.4804   41.0238 H   0  0  0  0  0  0  0  0  0  0  0  0
   77.7933   39.4796   41.8604 H   0  0  0  0  0  0  0  0  0  0  0  0
   77.2374   37.2373   41.0247 H   0  0  0  0  0  0  0  0  0  0  0  0
   72.4681   40.2949   36.5010 H   0  0  0  0  0  0  0  0  0  0  0  0
   69.6272   42.3211   37.9540 H   0  0  0  0  0  0  0  0  0  0  0  0
   71.7693   42.1059   34.8233 H   0  0  0  0  0  0  0  0  0  0  0  0
   72.2469   43.7770   35.1677 H   0  0  0  0  0  0  0  0  0  0  0  0
   73.9978   42.1689   35.9385 H   0  0  0  0  0  0  0  0  0  0  0  0
   73.3355   43.1387   37.2405 H   0  0  0  0  0  0  0  0  0  0  0  0
  1  2  1  0  0  0  0
  1 21  1  0  0  0  0
  1 22  1  0  0  0  0
  2  3  1  0  0  0  0
  2 12  2  0  0  0  0
  3  9  2  0  0  0  0
  3  4  1  0  0  0  0
  4  5  2  0  0  0  0
  4  6  1  0  0  0  0
  6  7  1  0  0  0  0
 13  6  1  0  0  0  0
  7  8  2  0  0  0  0
  7  9  1  0  0  0  0
  9 10  1  0  0  0  0
 10 23  1  0  0  0  0
 10 11  2  0  0  0  0
 11 12  1  0  0  0  0
 11 24  1  0  0  0  0
 12 25  1  0  0  0  0
 13 26  1  0  0  0  0
 13 14  1  0  0  0  0
 13 20  1  0  0  0  0
 14 15  2  0  0  0  0
 14 16  1  0  0  0  0
 16 27  1  0  0  0  0
 16 17  1  0  0  0  0
 17 18  2  0  0  0  0
 17 19  1  0  0  0  0
 19 28  1  0  0  0  0
 19 29  1  0  0  0  0
 19 20  1  0  0  0  0
 20 30  1  0  0  0  0
 20 31  1  0  0  0  0
M  ZZC   1 n1
M  ZZC   2 c1
M  ZZC   3 c2
M  ZZC   4 c3
M  ZZC   5 o1
M  ZZC   6 n2
M  ZZC   7 c4
M  ZZC   8 o2
M  ZZC   9 c5
M  ZZC  10 c6
M  ZZC  11 c7
M  ZZC  12 c8
M  ZZC  13 c9
M  ZZC  14 c10
M  ZZC  15 o3
M  ZZC  16 n3
M  ZZC  17 c11
M  ZZC  18 o4
M  ZZC  19 c12
M  ZZC  20 c13
M  ZZC  21 h11
M  ZZC  22 h12
M  ZZC  23 h61
M  ZZC  24 h71
M  ZZC  25 h81
M  ZZC  26 h91
M  ZZC  27 h31
M  ZZC  28 h121
M  ZZC  29 h122
M  ZZC  30 h131
M  ZZC  31 h132
M  ZZM   1 40
M  ZZI   1 224
M  ZZM   2 37
M  ZZI   2 124
M  ZZM   3 37
M  ZZI   3 124
M  ZZM   4 3
M  ZZI   4 121
M  ZZM   5 7
M  ZZI   5 81
M  ZZM   6 10
M  ZZI   6 192
M  ZZM   7 3
M  ZZI   7 121
M  ZZM   8 7
M  ZZI   8 81
M  ZZM   9 37
M  ZZI   9 124
M  ZZM  10 37
M  ZZI  10 125
M  ZZM  11 37
M  ZZI  11 125
M  ZZM  12 37
M  ZZI  12 125
M  ZZM  13 1
M  ZZI  13 113
M  ZZM  14 3
M  ZZI  14 121
M  ZZM  15 7
M  ZZI  15 81
M  ZZM  16 10
M  ZZI  16 191
M  ZZM  17 3
M  ZZI  17 121
M  ZZM  18 7
M  ZZI  18 81
M  ZZM  19 1
M  ZZI  19 112
M  ZZM  20 1
M  ZZI  20 112
M  ZZM  21 28
M  ZZI  21 11
M  ZZM  22 28
M  ZZI  22 11
M  ZZM  23 5
M  ZZI  23 1
M  ZZM  24 5
M  ZZI  24 1
M  ZZM  25 5
M  ZZI  25 1
M  ZZM  26 5
M  ZZI  26 1
M  ZZM  27 28
M  ZZI  27 11
M  ZZM  28 5
M  ZZI  28 1
M  ZZM  29 5
M  ZZI  29 1
M  ZZM  30 5
M  ZZI  30 1
M  ZZM  31 5
M  ZZI  31 1
M  END
> <IX>
1

> <NAME>
Cereblon_5MO4_2.pdb

> <Score>
-20.779567

> <Natom>
31

> <Nflex>
1

> <Hbond>
-4.53688

> <Hphob>
-3.550111

> <VwInt>
-22.738935

> <Dsolv>
13.511729

> <SolEl>
7.29333

> <Eintl>
0.448093

> <RecConf>
ND

> <projPath>
Cereblon_maps/

> <NAME_>
Cereblon_5MO4_2.pdb

$$$$
