Cereblon_4IPF_14.pdb
  MOLSOFT 04032206223D

 30 32  0  0  1  0  0  0  0  0999 V2000
   75.2235   39.9241   40.0973 C   0  0  0  0  0  0  0  0  0  0  0  0
   74.5072   40.5300   39.0811 C   0  0  0  0  0  0  0  0  0  0  0  0
   74.9267   41.7197   38.5634 C   0  0  0  0  0  0  0  0  0  0  0  0
   74.0177   42.0951   37.4826 C   0  0  0  0  0  0  0  0  0  0  0  0
   74.1920   43.0908   36.8002 O   0  0  0  0  0  0  0  0  0  0  0  0
   73.0367   41.1198   37.4148 N   0  0  0  0  0  0  0  0  0  0  0  0
   71.9270   41.0195   36.4463 C   0  0  1  0  0  0  0  0  0  0  0  0
   70.5619   41.0261   37.1349 C   0  0  0  0  0  0  0  0  0  0  0  0
   70.1760   40.1356   37.8770 O   0  0  0  0  0  0  0  0  0  0  0  0
   69.7446   42.1012   36.8991 N   0  0  0  0  0  0  0  0  0  0  0  0
   70.0026   43.2367   36.1936 C   0  0  0  0  0  0  0  0  0  0  0  0
   69.1548   44.1055   36.1009 O   0  0  0  0  0  0  0  0  0  0  0  0
   71.3805   43.3636   35.6164 C   0  0  0  0  0  0  0  0  0  0  0  0
   71.9410   41.9933   35.2611 C   0  0  0  0  0  0  0  0  0  0  0  0
   73.2617   40.0804   38.4093 C   0  0  0  0  0  0  0  0  0  0  0  0
   76.0427   42.3953   39.0211 C   0  0  0  0  0  0  0  0  0  0  0  0
   76.7487   41.8073   40.0587 C   0  0  0  0  0  0  0  0  0  0  0  0
   76.3454   40.5826   40.5864 C   0  0  0  0  0  0  0  0  0  0  0  0
   74.9125   38.9683   40.5074 H   0  0  0  0  0  0  0  0  0  0  0  0
   72.0331   40.0188   36.0125 H   0  0  0  0  0  0  0  0  0  0  0  0
   68.8124   42.0541   37.2933 H   0  0  0  0  0  0  0  0  0  0  0  0
   71.3164   43.9818   34.7173 H   0  0  0  0  0  0  0  0  0  0  0  0
   71.9954   43.8929   36.3472 H   0  0  0  0  0  0  0  0  0  0  0  0
   71.3129   41.5733   34.4665 H   0  0  0  0  0  0  0  0  0  0  0  0
   72.9424   42.0865   34.8333 H   0  0  0  0  0  0  0  0  0  0  0  0
   73.3972   39.1151   37.9089 H   0  0  0  0  0  0  0  0  0  0  0  0
   72.4269   40.0504   39.1171 H   0  0  0  0  0  0  0  0  0  0  0  0
   76.3552   43.3422   38.5924 H   0  0  0  0  0  0  0  0  0  0  0  0
   77.6254   42.3056   40.4613 H   0  0  0  0  0  0  0  0  0  0  0  0
   76.9197   40.1357   41.3922 H   0  0  0  0  0  0  0  0  0  0  0  0
  1 19  1  0  0  0  0
  1 18  2  0  0  0  0
  1  2  1  0  0  0  0
  2  3  2  0  0  0  0
  2 15  1  0  0  0  0
  3 16  1  0  0  0  0
  3  4  1  0  0  0  0
  4  6  1  0  0  0  0
  4  5  2  0  0  0  0
  6 15  1  0  0  0  0
  7  6  1  0  0  0  0
  7 20  1  0  0  0  0
  7  8  1  0  0  0  0
  7 14  1  0  0  0  0
  8  9  2  0  0  0  0
  8 10  1  0  0  0  0
 10 21  1  0  0  0  0
 10 11  1  0  0  0  0
 11 12  2  0  0  0  0
 11 13  1  0  0  0  0
 13 22  1  0  0  0  0
 13 23  1  0  0  0  0
 13 14  1  0  0  0  0
 14 24  1  0  0  0  0
 14 25  1  0  0  0  0
 15 26  1  0  0  0  0
 15 27  1  0  0  0  0
 16 17  2  0  0  0  0
 16 28  1  0  0  0  0
 17 18  1  0  0  0  0
 17 29  1  0  0  0  0
 18 30  1  0  0  0  0
M  ZZC   1 c1
M  ZZC   2 c2
M  ZZC   3 c3
M  ZZC   4 c4
M  ZZC   5 o1
M  ZZC   6 n1
M  ZZC   7 c5
M  ZZC   8 c6
M  ZZC   9 o2
M  ZZC  10 n2
M  ZZC  11 c7
M  ZZC  12 o3
M  ZZC  13 c8
M  ZZC  14 c9
M  ZZC  15 c10
M  ZZC  16 c11
M  ZZC  17 c12
M  ZZC  18 c13
M  ZZC  19 h11
M  ZZC  20 h51
M  ZZC  21 h21
M  ZZC  22 h81
M  ZZC  23 h82
M  ZZC  24 h91
M  ZZC  25 h92
M  ZZC  26 h101
M  ZZC  27 h102
M  ZZC  28 h111
M  ZZC  29 h121
M  ZZC  30 h131
M  ZZM   1 37
M  ZZI   1 125
M  ZZM   2 37
M  ZZI   2 124
M  ZZM   3 37
M  ZZI   3 124
M  ZZM   4 3
M  ZZI   4 121
M  ZZM   5 7
M  ZZI   5 81
M  ZZM   6 10
M  ZZI   6 192
M  ZZM   7 1
M  ZZI   7 113
M  ZZM   8 3
M  ZZI   8 121
M  ZZM   9 7
M  ZZI   9 81
M  ZZM  10 10
M  ZZI  10 191
M  ZZM  11 3
M  ZZI  11 121
M  ZZM  12 7
M  ZZI  12 81
M  ZZM  13 1
M  ZZI  13 112
M  ZZM  14 1
M  ZZI  14 112
M  ZZM  15 1
M  ZZI  15 112
M  ZZM  16 37
M  ZZI  16 125
M  ZZM  17 37
M  ZZI  17 125
M  ZZM  18 37
M  ZZI  18 125
M  ZZM  19 5
M  ZZI  19 1
M  ZZM  20 5
M  ZZI  20 1
M  ZZM  21 28
M  ZZI  21 11
M  ZZM  22 5
M  ZZI  22 1
M  ZZM  23 5
M  ZZI  23 1
M  ZZM  24 5
M  ZZI  24 1
M  ZZM  25 5
M  ZZI  25 1
M  ZZM  26 5
M  ZZI  26 1
M  ZZM  27 5
M  ZZI  27 1
M  ZZM  28 5
M  ZZI  28 1
M  ZZM  29 5
M  ZZI  29 1
M  ZZM  30 5
M  ZZI  30 1
M  END
> <IX>
1

> <NAME>
Cereblon_4IPF_14.pdb

> <Score>
-16.241001

> <Natom>
30

> <Nflex>
1

> <Hbond>
-4.524098

> <Hphob>
-3.670757

> <VwInt>
-21.331398

> <Dsolv>
13.964586

> <SolEl>
6.141146

> <Eintl>
6.448627

> <RecConf>
ND

> <projPath>
Cereblon_maps/

> <NAME_>
Cereblon_4IPF_14.pdb

$$$$
