Cereblon_6Z45_14.pdb
  MOLSOFT 04032206303D

 29 31  0  0  1  0  0  0  0  0999 V2000
   79.0016   42.4923   42.6728 C   0  0  0  0  0  0  0  0  0  0  0  0
   78.1833   42.1960   41.5971 C   0  0  0  0  0  0  0  0  0  0  0  0
   77.2664   41.0771   41.4122 C   0  0  0  0  0  0  0  0  0  0  0  0
   77.0858   40.2163   42.2598 O   0  0  0  0  0  0  0  0  0  0  0  0
   76.7261   41.2182   40.1470 N   0  0  0  0  0  0  0  0  0  0  0  0
   77.2216   42.3453   39.5234 C   0  0  0  0  0  0  0  0  0  0  0  0
   76.9863   42.7639   38.3973 O   0  0  0  0  0  0  0  0  0  0  0  0
   78.1558   42.9582   40.4682 C   0  0  0  0  0  0  0  0  0  0  0  0
   78.9554   44.0738   40.3253 C   0  0  0  0  0  0  0  0  0  0  0  0
   79.7960   44.3856   41.3879 C   0  0  0  0  0  0  0  0  0  0  0  0
   79.8202   43.6081   42.5463 C   0  0  0  0  0  0  0  0  0  0  0  0
   75.7171   40.3639   39.5148 C   0  0  2  0  0  0  0  0  0  0  0  0
   74.3372   40.9312   39.8070 C   0  0  0  0  0  0  0  0  0  0  0  0
   74.1481   42.1168   40.0229 O   0  0  0  0  0  0  0  0  0  0  0  0
   73.2876   40.0482   39.7311 N   0  0  0  0  0  0  0  0  0  0  0  0
   73.3262   38.7029   39.4571 C   0  0  0  0  0  0  0  0  0  0  0  0
   72.3111   38.0286   39.3985 O   0  0  0  0  0  0  0  0  0  0  0  0
   74.6911   38.1226   39.1781 C   0  0  0  0  0  0  0  0  0  0  0  0
   75.7729   38.8923   39.9150 C   0  0  0  0  0  0  0  0  0  0  0  0
   79.0145   41.8755   43.5672 H   0  0  0  0  0  0  0  0  0  0  0  0
   78.9277   44.6733   39.4234 H   0  0  0  0  0  0  0  0  0  0  0  0
   80.4456   45.2502   41.3165 H   0  0  0  0  0  0  0  0  0  0  0  0
   80.4875   43.8761   43.3606 H   0  0  0  0  0  0  0  0  0  0  0  0
   75.8542   40.4537   38.4352 H   0  0  0  0  0  0  0  0  0  0  0  0
   72.3686   40.4401   39.8954 H   0  0  0  0  0  0  0  0  0  0  0  0
   74.6975   37.0769   39.5018 H   0  0  0  0  0  0  0  0  0  0  0  0
   74.8515   38.1469   38.0958 H   0  0  0  0  0  0  0  0  0  0  0  0
   75.6106   38.7716   40.9898 H   0  0  0  0  0  0  0  0  0  0  0  0
   76.7580   38.4706   39.6904 H   0  0  0  0  0  0  0  0  0  0  0  0
  1 20  1  0  0  0  0
  1  2  1  0  0  0  0
  1 11  2  0  0  0  0
  2  3  1  0  0  0  0
  2  8  2  0  0  0  0
  3  4  2  0  0  0  0
  3  5  1  0  0  0  0
  5  6  1  0  0  0  0
 12  5  1  0  0  0  0
  6  7  2  0  0  0  0
  6  8  1  0  0  0  0
  8  9  1  0  0  0  0
  9 21  1  0  0  0  0
  9 10  2  0  0  0  0
 10 22  1  0  0  0  0
 10 11  1  0  0  0  0
 11 23  1  0  0  0  0
 12 24  1  0  0  0  0
 12 13  1  0  0  0  0
 12 19  1  0  0  0  0
 13 14  2  0  0  0  0
 13 15  1  0  0  0  0
 15 25  1  0  0  0  0
 15 16  1  0  0  0  0
 16 17  2  0  0  0  0
 16 18  1  0  0  0  0
 18 26  1  0  0  0  0
 18 27  1  0  0  0  0
 18 19  1  0  0  0  0
 19 28  1  0  0  0  0
 19 29  1  0  0  0  0
M  ZZC   1 c1
M  ZZC   2 c2
M  ZZC   3 c3
M  ZZC   4 o1
M  ZZC   5 n1
M  ZZC   6 c4
M  ZZC   7 o2
M  ZZC   8 c5
M  ZZC   9 c6
M  ZZC  10 c7
M  ZZC  11 c8
M  ZZC  12 c9
M  ZZC  13 c10
M  ZZC  14 o3
M  ZZC  15 n2
M  ZZC  16 c11
M  ZZC  17 o4
M  ZZC  18 c12
M  ZZC  19 c13
M  ZZC  20 h11
M  ZZC  21 h61
M  ZZC  22 h71
M  ZZC  23 h81
M  ZZC  24 h91
M  ZZC  25 h21
M  ZZC  26 h121
M  ZZC  27 h122
M  ZZC  28 h131
M  ZZC  29 h132
M  ZZM   1 37
M  ZZI   1 125
M  ZZM   2 37
M  ZZI   2 124
M  ZZM   3 3
M  ZZI   3 121
M  ZZM   4 7
M  ZZI   4 81
M  ZZM   5 10
M  ZZI   5 192
M  ZZM   6 3
M  ZZI   6 121
M  ZZM   7 7
M  ZZI   7 81
M  ZZM   8 37
M  ZZI   8 124
M  ZZM   9 37
M  ZZI   9 125
M  ZZM  10 37
M  ZZI  10 125
M  ZZM  11 37
M  ZZI  11 125
M  ZZM  12 1
M  ZZI  12 113
M  ZZM  13 3
M  ZZI  13 121
M  ZZM  14 7
M  ZZI  14 81
M  ZZM  15 10
M  ZZI  15 191
M  ZZM  16 3
M  ZZI  16 121
M  ZZM  17 7
M  ZZI  17 81
M  ZZM  18 1
M  ZZI  18 112
M  ZZM  19 1
M  ZZI  19 112
M  ZZM  20 5
M  ZZI  20 1
M  ZZM  21 5
M  ZZI  21 1
M  ZZM  22 5
M  ZZI  22 1
M  ZZM  23 5
M  ZZI  23 1
M  ZZM  24 5
M  ZZI  24 1
M  ZZM  25 28
M  ZZI  25 11
M  ZZM  26 5
M  ZZI  26 1
M  ZZM  27 5
M  ZZI  27 1
M  ZZM  28 5
M  ZZI  28 1
M  ZZM  29 5
M  ZZI  29 1
M  END
> <IX>
1

> <NAME>
Cereblon_6Z45_14.pdb

> <Score>
-19.261796

> <Natom>
29

> <Nflex>
1

> <Hbond>
-3.283225

> <Hphob>
-3.530512

> <VwInt>
-22.81889

> <Dsolv>
12.067193

> <SolEl>
5.628427

> <Eintl>
1.4399

> <RecConf>
ND

> <projPath>
Cereblon_maps/

> <NAME_>
Cereblon_6Z45_14.pdb

$$$$
