Cereblon_5J8O_12.pdb
  MOLSOFT 04032206253D

 31 33  0  0  1  0  0  0  0  0999 V2000
   78.8135   41.6777   43.8190 N   0  0  0  0  0  0  0  0  0  0  0  0
   78.9076   42.4221   42.6326 C   0  0  0  0  0  0  0  0  0  0  0  0
   78.1008   42.1576   41.5388 C   0  0  0  0  0  0  0  0  0  0  0  0
   77.1799   41.0472   41.3313 C   0  0  0  0  0  0  0  0  0  0  0  0
   76.9991   40.1641   42.1566 O   0  0  0  0  0  0  0  0  0  0  0  0
   76.6451   41.2121   40.0690 N   0  0  0  0  0  0  0  0  0  0  0  0
   77.1670   42.3325   39.4552 C   0  0  0  0  0  0  0  0  0  0  0  0
   76.9549   42.7556   38.3262 O   0  0  0  0  0  0  0  0  0  0  0  0
   78.0988   42.9272   40.4149 C   0  0  0  0  0  0  0  0  0  0  0  0
   78.9100   44.0367   40.2944 C   0  0  0  0  0  0  0  0  0  0  0  0
   79.7255   44.3366   41.3795 C   0  0  0  0  0  0  0  0  0  0  0  0
   79.7125   43.5532   42.5352 C   0  0  0  0  0  0  0  0  0  0  0  0
   75.6258   40.3759   39.4314 C   0  0  2  0  0  0  0  0  0  0  0  0
   74.2541   40.9543   39.7351 C   0  0  0  0  0  0  0  0  0  0  0  0
   74.0840   42.1342   39.9933 O   0  0  0  0  0  0  0  0  0  0  0  0
   73.1931   40.0894   39.6206 N   0  0  0  0  0  0  0  0  0  0  0  0
   73.2183   38.7516   39.3092 C   0  0  0  0  0  0  0  0  0  0  0  0
   72.1932   38.0987   39.2014 O   0  0  0  0  0  0  0  0  0  0  0  0
   74.5814   38.1527   39.0565 C   0  0  0  0  0  0  0  0  0  0  0  0
   75.6588   38.9016   39.8209 C   0  0  0  0  0  0  0  0  0  0  0  0
   79.5529   41.7613   44.5131 H   0  0  0  0  0  0  0  0  0  0  0  0
   78.3232   40.7830   43.7766 H   0  0  0  0  0  0  0  0  0  0  0  0
   78.9027   44.6451   39.3977 H   0  0  0  0  0  0  0  0  0  0  0  0
   80.3735   45.2049   41.3357 H   0  0  0  0  0  0  0  0  0  0  0  0
   80.3439   43.8352   43.3723 H   0  0  0  0  0  0  0  0  0  0  0  0
   75.7613   40.4758   38.3532 H   0  0  0  0  0  0  0  0  0  0  0  0
   72.2778   40.4919   39.7799 H   0  0  0  0  0  0  0  0  0  0  0  0
   74.5658   37.1050   39.3734 H   0  0  0  0  0  0  0  0  0  0  0  0
   74.7699   38.1776   37.9788 H   0  0  0  0  0  0  0  0  0  0  0  0
   75.4722   38.7743   40.8913 H   0  0  0  0  0  0  0  0  0  0  0  0
   76.6439   38.4708   39.6150 H   0  0  0  0  0  0  0  0  0  0  0  0
  1  2  1  0  0  0  0
  1 21  1  0  0  0  0
  1 22  1  0  0  0  0
  2  3  1  0  0  0  0
  2 12  2  0  0  0  0
  3  9  2  0  0  0  0
  3  4  1  0  0  0  0
  4  5  2  0  0  0  0
  4  6  1  0  0  0  0
  6  7  1  0  0  0  0
 13  6  1  0  0  0  0
  7  8  2  0  0  0  0
  7  9  1  0  0  0  0
  9 10  1  0  0  0  0
 10 23  1  0  0  0  0
 10 11  2  0  0  0  0
 11 12  1  0  0  0  0
 11 24  1  0  0  0  0
 12 25  1  0  0  0  0
 13 26  1  0  0  0  0
 13 14  1  0  0  0  0
 13 20  1  0  0  0  0
 14 15  2  0  0  0  0
 14 16  1  0  0  0  0
 16 27  1  0  0  0  0
 16 17  1  0  0  0  0
 17 18  2  0  0  0  0
 17 19  1  0  0  0  0
 19 28  1  0  0  0  0
 19 29  1  0  0  0  0
 19 20  1  0  0  0  0
 20 30  1  0  0  0  0
 20 31  1  0  0  0  0
M  ZZC   1 n1
M  ZZC   2 c1
M  ZZC   3 c2
M  ZZC   4 c3
M  ZZC   5 o1
M  ZZC   6 n2
M  ZZC   7 c4
M  ZZC   8 o2
M  ZZC   9 c5
M  ZZC  10 c6
M  ZZC  11 c7
M  ZZC  12 c8
M  ZZC  13 c9
M  ZZC  14 c10
M  ZZC  15 o3
M  ZZC  16 n3
M  ZZC  17 c11
M  ZZC  18 o4
M  ZZC  19 c12
M  ZZC  20 c13
M  ZZC  21 h11
M  ZZC  22 h12
M  ZZC  23 h61
M  ZZC  24 h71
M  ZZC  25 h81
M  ZZC  26 h91
M  ZZC  27 h31
M  ZZC  28 h121
M  ZZC  29 h122
M  ZZC  30 h131
M  ZZC  31 h132
M  ZZM   1 40
M  ZZI   1 224
M  ZZM   2 37
M  ZZI   2 124
M  ZZM   3 37
M  ZZI   3 124
M  ZZM   4 3
M  ZZI   4 121
M  ZZM   5 7
M  ZZI   5 81
M  ZZM   6 10
M  ZZI   6 192
M  ZZM   7 3
M  ZZI   7 121
M  ZZM   8 7
M  ZZI   8 81
M  ZZM   9 37
M  ZZI   9 124
M  ZZM  10 37
M  ZZI  10 125
M  ZZM  11 37
M  ZZI  11 125
M  ZZM  12 37
M  ZZI  12 125
M  ZZM  13 1
M  ZZI  13 113
M  ZZM  14 3
M  ZZI  14 121
M  ZZM  15 7
M  ZZI  15 81
M  ZZM  16 10
M  ZZI  16 191
M  ZZM  17 3
M  ZZI  17 121
M  ZZM  18 7
M  ZZI  18 81
M  ZZM  19 1
M  ZZI  19 112
M  ZZM  20 1
M  ZZI  20 112
M  ZZM  21 28
M  ZZI  21 11
M  ZZM  22 28
M  ZZI  22 11
M  ZZM  23 5
M  ZZI  23 1
M  ZZM  24 5
M  ZZI  24 1
M  ZZM  25 5
M  ZZI  25 1
M  ZZM  26 5
M  ZZI  26 1
M  ZZM  27 28
M  ZZI  27 11
M  ZZM  28 5
M  ZZI  28 1
M  ZZM  29 5
M  ZZI  29 1
M  ZZM  30 5
M  ZZI  30 1
M  ZZM  31 5
M  ZZI  31 1
M  END
> <IX>
1

> <NAME>
Cereblon_5J8O_12.pdb

> <Score>
-18.685205

> <Natom>
31

> <Nflex>
1

> <Hbond>
-3.693249

> <Hphob>
-3.575686

> <VwInt>
-24.248872

> <Dsolv>
15.056606

> <SolEl>
6.658173

> <Eintl>
1.694081

> <RecConf>
ND

> <projPath>
Cereblon_maps/

> <NAME_>
Cereblon_5J8O_12.pdb

$$$$
