Cereblon_5G0J_21.pdb
  MOLSOFT 04032206243D

 31 33  0  0  1  0  0  0  0  0999 V2000
   78.8195   41.6812   43.8081 N   0  0  0  0  0  0  0  0  0  0  0  0
   78.8979   42.4347   42.6271 C   0  0  0  0  0  0  0  0  0  0  0  0
   78.0946   42.1633   41.5319 C   0  0  0  0  0  0  0  0  0  0  0  0
   77.1734   41.0531   41.3273 C   0  0  0  0  0  0  0  0  0  0  0  0
   76.9940   40.1721   42.1547 O   0  0  0  0  0  0  0  0  0  0  0  0
   76.6351   41.2177   40.0669 N   0  0  0  0  0  0  0  0  0  0  0  0
   77.1583   42.3352   39.4489 C   0  0  0  0  0  0  0  0  0  0  0  0
   76.9487   42.7513   38.3168 O   0  0  0  0  0  0  0  0  0  0  0  0
   78.0912   42.9313   40.4061 C   0  0  0  0  0  0  0  0  0  0  0  0
   78.9048   44.0390   40.2824 C   0  0  0  0  0  0  0  0  0  0  0  0
   79.7289   44.3354   41.3625 C   0  0  0  0  0  0  0  0  0  0  0  0
   79.7154   43.5561   42.5213 C   0  0  0  0  0  0  0  0  0  0  0  0
   75.6175   40.3787   39.4297 C   0  0  2  0  0  0  0  0  0  0  0  0
   74.2461   40.9594   39.7294 C   0  0  0  0  0  0  0  0  0  0  0  0
   74.0768   42.1384   39.9916 O   0  0  0  0  0  0  0  0  0  0  0  0
   73.1842   40.0975   39.6035 N   0  0  0  0  0  0  0  0  0  0  0  0
   73.2082   38.7600   39.2892 C   0  0  0  0  0  0  0  0  0  0  0  0
   72.1819   38.1122   39.1648 O   0  0  0  0  0  0  0  0  0  0  0  0
   74.5717   38.1540   39.0571 C   0  0  0  0  0  0  0  0  0  0  0  0
   75.6469   38.9046   39.8240 C   0  0  0  0  0  0  0  0  0  0  0  0
   79.5418   41.7756   44.5190 H   0  0  0  0  0  0  0  0  0  0  0  0
   78.2720   40.8190   43.7973 H   0  0  0  0  0  0  0  0  0  0  0  0
   78.8987   44.6443   39.3837 H   0  0  0  0  0  0  0  0  0  0  0  0
   80.3835   45.1984   41.3126 H   0  0  0  0  0  0  0  0  0  0  0  0
   80.3542   43.8341   43.3541 H   0  0  0  0  0  0  0  0  0  0  0  0
   75.7548   40.4758   38.3519 H   0  0  0  0  0  0  0  0  0  0  0  0
   72.2685   40.5017   39.7557 H   0  0  0  0  0  0  0  0  0  0  0  0
   74.5490   37.1088   39.3818 H   0  0  0  0  0  0  0  0  0  0  0  0
   74.7700   38.1698   37.9812 H   0  0  0  0  0  0  0  0  0  0  0  0
   75.4574   38.7803   40.8941 H   0  0  0  0  0  0  0  0  0  0  0  0
   76.6322   38.4725   39.6217 H   0  0  0  0  0  0  0  0  0  0  0  0
  1  2  1  0  0  0  0
  1 21  1  0  0  0  0
  1 22  1  0  0  0  0
  2  3  1  0  0  0  0
  2 12  2  0  0  0  0
  3  9  2  0  0  0  0
  3  4  1  0  0  0  0
  4  5  2  0  0  0  0
  4  6  1  0  0  0  0
  6  7  1  0  0  0  0
 13  6  1  0  0  0  0
  7  8  2  0  0  0  0
  7  9  1  0  0  0  0
  9 10  1  0  0  0  0
 10 23  1  0  0  0  0
 10 11  2  0  0  0  0
 11 12  1  0  0  0  0
 11 24  1  0  0  0  0
 12 25  1  0  0  0  0
 13 26  1  0  0  0  0
 13 14  1  0  0  0  0
 13 20  1  0  0  0  0
 14 15  2  0  0  0  0
 14 16  1  0  0  0  0
 16 27  1  0  0  0  0
 16 17  1  0  0  0  0
 17 18  2  0  0  0  0
 17 19  1  0  0  0  0
 19 28  1  0  0  0  0
 19 29  1  0  0  0  0
 19 20  1  0  0  0  0
 20 30  1  0  0  0  0
 20 31  1  0  0  0  0
M  ZZC   1 n1
M  ZZC   2 c1
M  ZZC   3 c2
M  ZZC   4 c3
M  ZZC   5 o1
M  ZZC   6 n2
M  ZZC   7 c4
M  ZZC   8 o2
M  ZZC   9 c5
M  ZZC  10 c6
M  ZZC  11 c7
M  ZZC  12 c8
M  ZZC  13 c9
M  ZZC  14 c10
M  ZZC  15 o3
M  ZZC  16 n3
M  ZZC  17 c11
M  ZZC  18 o4
M  ZZC  19 c12
M  ZZC  20 c13
M  ZZC  21 h11
M  ZZC  22 h12
M  ZZC  23 h61
M  ZZC  24 h71
M  ZZC  25 h81
M  ZZC  26 h91
M  ZZC  27 h31
M  ZZC  28 h121
M  ZZC  29 h122
M  ZZC  30 h131
M  ZZC  31 h132
M  ZZM   1 40
M  ZZI   1 224
M  ZZM   2 37
M  ZZI   2 124
M  ZZM   3 37
M  ZZI   3 124
M  ZZM   4 3
M  ZZI   4 121
M  ZZM   5 7
M  ZZI   5 81
M  ZZM   6 10
M  ZZI   6 192
M  ZZM   7 3
M  ZZI   7 121
M  ZZM   8 7
M  ZZI   8 81
M  ZZM   9 37
M  ZZI   9 124
M  ZZM  10 37
M  ZZI  10 125
M  ZZM  11 37
M  ZZI  11 125
M  ZZM  12 37
M  ZZI  12 125
M  ZZM  13 1
M  ZZI  13 113
M  ZZM  14 3
M  ZZI  14 121
M  ZZM  15 7
M  ZZI  15 81
M  ZZM  16 10
M  ZZI  16 191
M  ZZM  17 3
M  ZZI  17 121
M  ZZM  18 7
M  ZZI  18 81
M  ZZM  19 1
M  ZZI  19 112
M  ZZM  20 1
M  ZZI  20 112
M  ZZM  21 28
M  ZZI  21 11
M  ZZM  22 28
M  ZZI  22 11
M  ZZM  23 5
M  ZZI  23 1
M  ZZM  24 5
M  ZZI  24 1
M  ZZM  25 5
M  ZZI  25 1
M  ZZM  26 5
M  ZZI  26 1
M  ZZM  27 28
M  ZZI  27 11
M  ZZM  28 5
M  ZZI  28 1
M  ZZM  29 5
M  ZZI  29 1
M  ZZM  30 5
M  ZZI  30 1
M  ZZM  31 5
M  ZZI  31 1
M  END
> <IX>
1

> <NAME>
Cereblon_5G0J_21.pdb

> <Score>
-18.619885

> <Natom>
31

> <Nflex>
1

> <Hbond>
-3.692869

> <Hphob>
-3.550922

> <VwInt>
-24.308691

> <Dsolv>
15.309721

> <SolEl>
6.501992

> <Eintl>
1.728794

> <RecConf>
ND

> <projPath>
Cereblon_maps/

> <NAME_>
Cereblon_5G0J_21.pdb

$$$$
