Cereblon_3HLL_9.pdb
  MOLSOFT 04032206233D

 46 49  0  0  1  0  0  0  0  0999 V2000
   78.7780   41.6831   43.8176 N   0  0  0  0  0  0  0  0  0  0  0  0
   78.8649   42.4260   42.6299 C   0  0  0  0  0  0  0  0  0  0  0  0
   78.0546   42.1576   41.5394 C   0  0  0  0  0  0  0  0  0  0  0  0
   77.1359   41.0439   41.3375 C   0  0  0  0  0  0  0  0  0  0  0  0
   76.9772   40.1561   42.1624 O   0  0  0  0  0  0  0  0  0  0  0  0
   76.6047   41.1969   40.0713 N   0  0  0  0  0  0  0  0  0  0  0  0
   77.1469   42.3004   39.4429 C   0  0  0  0  0  0  0  0  0  0  0  0
   76.9668   42.6907   38.2965 O   0  0  0  0  0  0  0  0  0  0  0  0
   78.0625   42.9132   40.4064 C   0  0  0  0  0  0  0  0  0  0  0  0
   78.8842   44.0141   40.2747 C   0  0  0  0  0  0  0  0  0  0  0  0
   79.7014   44.3192   41.3573 C   0  0  0  0  0  0  0  0  0  0  0  0
   79.6819   43.5476   42.5208 C   0  0  0  0  0  0  0  0  0  0  0  0
   75.6683   40.2990   39.3870 C   0  0  2  0  0  0  0  0  0  0  0  0
   74.2985   40.9514   39.2658 C   0  0  0  0  0  0  0  0  0  0  0  0
   74.1191   42.1196   39.5838 O   0  0  0  0  0  0  0  0  0  0  0  0
   73.2974   40.1371   38.7390 N   0  0  0  0  0  0  0  0  0  0  0  0
   72.0925   40.7822   38.2009 C   0  0  0  0  0  0  0  0  0  0  0  0
   72.0901   40.9186   36.6799 C   0  0  0  0  0  0  0  0  0  0  0  0
   71.2972   41.8538   35.9810 C   0  0  0  0  0  0  0  0  0  0  0  0
   70.3746   42.7460   36.6759 N   0  0  0  0  0  0  0  0  0  0  0  0
   70.2864   43.9072   36.2622 O   0  0  0  0  0  0  0  0  0  0  0  0
   69.7027   42.2626   37.5894 O   0  0  0  0  0  0  0  0  0  0  0  0
   71.2913   41.9478   34.5913 C   0  0  0  0  0  0  0  0  0  0  0  0
   72.0584   41.0786   33.8454 C   0  0  0  0  0  0  0  0  0  0  0  0
   72.8211   40.1323   34.4929 C   0  0  0  0  0  0  0  0  0  0  0  0
   72.8449   40.0583   35.8741 C   0  0  0  0  0  0  0  0  0  0  0  0
   73.2865   38.7462   38.8327 C   0  0  0  0  0  0  0  0  0  0  0  0
   72.2974   38.0661   38.6030 O   0  0  0  0  0  0  0  0  0  0  0  0
   74.5918   38.0674   39.1669 C   0  0  0  0  0  0  0  0  0  0  0  0
   75.5123   38.9209   40.0100 C   0  0  0  0  0  0  0  0  0  0  0  0
   79.5112   41.7732   44.5177 H   0  0  0  0  0  0  0  0  0  0  0  0
   78.2617   40.8022   43.7923 H   0  0  0  0  0  0  0  0  0  0  0  0
   78.8885   44.6085   39.3686 H   0  0  0  0  0  0  0  0  0  0  0  0
   80.3601   45.1789   41.3030 H   0  0  0  0  0  0  0  0  0  0  0  0
   80.3194   43.8293   43.3533 H   0  0  0  0  0  0  0  0  0  0  0  0
   76.0458   40.1954   38.3696 H   0  0  0  0  0  0  0  0  0  0  0  0
   71.2115   40.2055   38.5028 H   0  0  0  0  0  0  0  0  0  0  0  0
   72.0072   41.7722   38.6542 H   0  0  0  0  0  0  0  0  0  0  0  0
   70.6639   42.6711   34.0805 H   0  0  0  0  0  0  0  0  0  0  0  0
   72.0531   41.1179   32.7603 H   0  0  0  0  0  0  0  0  0  0  0  0
   73.4077   39.4322   33.9063 H   0  0  0  0  0  0  0  0  0  0  0  0
   73.4671   39.2835   36.3047 H   0  0  0  0  0  0  0  0  0  0  0  0
   74.3751   37.1347   39.6978 H   0  0  0  0  0  0  0  0  0  0  0  0
   75.0656   37.8030   38.2182 H   0  0  0  0  0  0  0  0  0  0  0  0
   76.4846   38.4263   40.1079 H   0  0  0  0  0  0  0  0  0  0  0  0
   75.0857   38.9967   41.0108 H   0  0  0  0  0  0  0  0  0  0  0  0
  1  2  1  0  0  0  0
  1 31  1  0  0  0  0
  1 32  1  0  0  0  0
  2  3  1  0  0  0  0
  2 12  2  0  0  0  0
  3  9  2  0  0  0  0
  3  4  1  0  0  0  0
  4  5  2  0  0  0  0
  4  6  1  0  0  0  0
  6  7  1  0  0  0  0
 13  6  1  0  0  0  0
  7  8  2  0  0  0  0
  7  9  1  0  0  0  0
  9 10  1  0  0  0  0
 10 33  1  0  0  0  0
 10 11  2  0  0  0  0
 11 12  1  0  0  0  0
 11 34  1  0  0  0  0
 12 35  1  0  0  0  0
 13 36  1  0  0  0  0
 13 14  1  0  0  0  0
 13 30  1  0  0  0  0
 14 15  2  0  0  0  0
 14 16  1  0  0  0  0
 16 27  1  0  0  0  0
 16 17  1  0  0  0  0
 17 37  1  0  0  0  0
 17 38  1  0  0  0  0
 17 18  1  0  0  0  0
 18 19  1  0  0  0  0
 18 26  2  0  0  0  0
 19 20  1  0  0  0  0
 19 23  2  0  0  0  0
 20 21  2  0  0  0  0
 20 22  2  0  0  0  0
 23 39  1  0  0  0  0
 23 24  1  0  0  0  0
 24 40  1  0  0  0  0
 24 25  2  0  0  0  0
 25 41  1  0  0  0  0
 25 26  1  0  0  0  0
 26 42  1  0  0  0  0
 27 28  2  0  0  0  0
 27 29  1  0  0  0  0
 29 43  1  0  0  0  0
 29 44  1  0  0  0  0
 29 30  1  0  0  0  0
 30 45  1  0  0  0  0
 30 46  1  0  0  0  0
M  ZZC   1 n1
M  ZZC   2 c1
M  ZZC   3 c2
M  ZZC   4 c3
M  ZZC   5 o1
M  ZZC   6 n2
M  ZZC   7 c4
M  ZZC   8 o2
M  ZZC   9 c5
M  ZZC  10 c6
M  ZZC  11 c7
M  ZZC  12 c8
M  ZZC  13 c9
M  ZZC  14 c10
M  ZZC  15 o3
M  ZZC  16 n3
M  ZZC  17 c11
M  ZZC  18 c12
M  ZZC  19 c13
M  ZZC  20 n4
M  ZZC  21 o4
M  ZZC  22 o5
M  ZZC  23 c14
M  ZZC  24 c15
M  ZZC  25 c16
M  ZZC  26 c17
M  ZZC  27 c18
M  ZZC  28 o6
M  ZZC  29 c19
M  ZZC  30 c20
M  ZZC  31 h11
M  ZZC  32 h12
M  ZZC  33 h61
M  ZZC  34 h71
M  ZZC  35 h81
M  ZZC  36 h91
M  ZZC  37 h111
M  ZZC  38 h112
M  ZZC  39 h141
M  ZZC  40 h151
M  ZZC  41 h161
M  ZZC  42 h171
M  ZZC  43 h191
M  ZZC  44 h192
M  ZZC  45 h201
M  ZZC  46 h202
M  ZZM   1 40
M  ZZI   1 224
M  ZZM   2 37
M  ZZI   2 124
M  ZZM   3 37
M  ZZI   3 124
M  ZZM   4 3
M  ZZI   4 121
M  ZZM   5 7
M  ZZI   5 81
M  ZZM   6 10
M  ZZI   6 192
M  ZZM   7 3
M  ZZI   7 121
M  ZZM   8 7
M  ZZI   8 81
M  ZZM   9 37
M  ZZI   9 124
M  ZZM  10 37
M  ZZI  10 125
M  ZZM  11 37
M  ZZI  11 125
M  ZZM  12 37
M  ZZI  12 125
M  ZZM  13 1
M  ZZI  13 113
M  ZZM  14 3
M  ZZI  14 121
M  ZZM  15 7
M  ZZI  15 81
M  ZZM  16 10
M  ZZI  16 192
M  ZZM  17 1
M  ZZI  17 112
M  ZZM  18 37
M  ZZI  18 124
M  ZZM  19 37
M  ZZI  19 124
M  ZZM  20 45
M  ZZI  20 227
M  ZZM  21 32
M  ZZI  21 73
M  ZZM  22 32
M  ZZI  22 73
M  ZZM  23 37
M  ZZI  23 125
M  ZZM  24 37
M  ZZI  24 125
M  ZZM  25 37
M  ZZI  25 125
M  ZZM  26 37
M  ZZI  26 125
M  ZZM  27 3
M  ZZI  27 121
M  ZZM  28 7
M  ZZI  28 81
M  ZZM  29 1
M  ZZI  29 112
M  ZZM  30 1
M  ZZI  30 112
M  ZZM  31 28
M  ZZI  31 11
M  ZZM  32 28
M  ZZI  32 11
M  ZZM  33 5
M  ZZI  33 1
M  ZZM  34 5
M  ZZI  34 1
M  ZZM  35 5
M  ZZI  35 1
M  ZZM  36 5
M  ZZI  36 1
M  ZZM  37 5
M  ZZI  37 1
M  ZZM  38 5
M  ZZI  38 1
M  ZZM  39 5
M  ZZI  39 1
M  ZZM  40 5
M  ZZI  40 1
M  ZZM  41 5
M  ZZI  41 1
M  ZZM  42 5
M  ZZI  42 1
M  ZZM  43 5
M  ZZI  43 1
M  ZZM  44 5
M  ZZI  44 1
M  ZZM  45 5
M  ZZI  45 1
M  ZZM  46 5
M  ZZI  46 1
M  END
> <IX>
1

> <NAME>
Cereblon_3HLL_9.pdb

> <Score>
-21.463481

> <Natom>
46

> <Nflex>
4

> <Hbond>
-3.796931

> <Hphob>
-5.621279

> <VwInt>
-34.354435

> <Dsolv>
17.02938

> <SolEl>
9.264956

> <Eintl>
8.294235

> <RecConf>
ND

> <projPath>
Cereblon_maps/

> <NAME_>
Cereblon_3HLL_9.pdb

$$$$
