Cereblon_5MO4_3.pdb
  MOLSOFT 04032206263D

 31 33  0  0  1  0  0  0  0  0999 V2000
   75.3812   36.6201   39.1983 N   0  0  0  0  0  0  0  0  0  0  0  0
   75.6505   37.8923   39.7274 C   0  0  0  0  0  0  0  0  0  0  0  0
   75.0159   39.0346   39.2644 C   0  0  0  0  0  0  0  0  0  0  0  0
   73.9589   39.1760   38.2631 C   0  0  0  0  0  0  0  0  0  0  0  0
   73.4428   38.2361   37.6745 O   0  0  0  0  0  0  0  0  0  0  0  0
   73.6978   40.5270   38.1522 N   0  0  0  0  0  0  0  0  0  0  0  0
   74.4563   41.2402   39.0634 C   0  0  0  0  0  0  0  0  0  0  0  0
   74.4479   42.4293   39.3417 O   0  0  0  0  0  0  0  0  0  0  0  0
   75.3263   40.2755   39.7276 C   0  0  0  0  0  0  0  0  0  0  0  0
   76.3161   40.4881   40.6682 C   0  0  0  0  0  0  0  0  0  0  0  0
   76.9915   39.3653   41.1273 C   0  0  0  0  0  0  0  0  0  0  0  0
   76.6698   38.0922   40.6554 C   0  0  0  0  0  0  0  0  0  0  0  0
   72.6708   41.0652   37.2475 C   0  0  1  0  0  0  0  0  0  0  0  0
   71.3611   41.2706   38.0021 C   0  0  0  0  0  0  0  0  0  0  0  0
   71.0434   40.6163   38.9845 O   0  0  0  0  0  0  0  0  0  0  0  0
   70.4944   42.1930   37.4618 N   0  0  0  0  0  0  0  0  0  0  0  0
   70.6880   43.0386   36.4011 C   0  0  0  0  0  0  0  0  0  0  0  0
   69.8653   43.8942   36.1119 O   0  0  0  0  0  0  0  0  0  0  0  0
   71.9605   42.8243   35.6209 C   0  0  0  0  0  0  0  0  0  0  0  0
   73.0862   42.3447   36.5236 C   0  0  0  0  0  0  0  0  0  0  0  0
   75.7383   35.7971   39.6788 H   0  0  0  0  0  0  0  0  0  0  0  0
   74.5527   36.5124   38.6104 H   0  0  0  0  0  0  0  0  0  0  0  0
   76.5711   41.4834   41.0190 H   0  0  0  0  0  0  0  0  0  0  0  0
   77.7871   39.4831   41.8573 H   0  0  0  0  0  0  0  0  0  0  0  0
   77.2329   37.2403   41.0226 H   0  0  0  0  0  0  0  0  0  0  0  0
   72.4616   40.2944   36.4966 H   0  0  0  0  0  0  0  0  0  0  0  0
   69.6236   42.3242   37.9553 H   0  0  0  0  0  0  0  0  0  0  0  0
   71.7603   42.1044   34.8203 H   0  0  0  0  0  0  0  0  0  0  0  0
   72.2392   43.7754   35.1628 H   0  0  0  0  0  0  0  0  0  0  0  0
   73.9906   42.1684   35.9327 H   0  0  0  0  0  0  0  0  0  0  0  0
   73.3292   43.1385   37.2351 H   0  0  0  0  0  0  0  0  0  0  0  0
  1  2  1  0  0  0  0
  1 21  1  0  0  0  0
  1 22  1  0  0  0  0
  2  3  1  0  0  0  0
  2 12  2  0  0  0  0
  3  9  2  0  0  0  0
  3  4  1  0  0  0  0
  4  5  2  0  0  0  0
  4  6  1  0  0  0  0
  6  7  1  0  0  0  0
 13  6  1  0  0  0  0
  7  8  2  0  0  0  0
  7  9  1  0  0  0  0
  9 10  1  0  0  0  0
 10 23  1  0  0  0  0
 10 11  2  0  0  0  0
 11 12  1  0  0  0  0
 11 24  1  0  0  0  0
 12 25  1  0  0  0  0
 13 26  1  0  0  0  0
 13 14  1  0  0  0  0
 13 20  1  0  0  0  0
 14 15  2  0  0  0  0
 14 16  1  0  0  0  0
 16 27  1  0  0  0  0
 16 17  1  0  0  0  0
 17 18  2  0  0  0  0
 17 19  1  0  0  0  0
 19 28  1  0  0  0  0
 19 29  1  0  0  0  0
 19 20  1  0  0  0  0
 20 30  1  0  0  0  0
 20 31  1  0  0  0  0
M  ZZC   1 n1
M  ZZC   2 c1
M  ZZC   3 c2
M  ZZC   4 c3
M  ZZC   5 o1
M  ZZC   6 n2
M  ZZC   7 c4
M  ZZC   8 o2
M  ZZC   9 c5
M  ZZC  10 c6
M  ZZC  11 c7
M  ZZC  12 c8
M  ZZC  13 c9
M  ZZC  14 c10
M  ZZC  15 o3
M  ZZC  16 n3
M  ZZC  17 c11
M  ZZC  18 o4
M  ZZC  19 c12
M  ZZC  20 c13
M  ZZC  21 h11
M  ZZC  22 h12
M  ZZC  23 h61
M  ZZC  24 h71
M  ZZC  25 h81
M  ZZC  26 h91
M  ZZC  27 h31
M  ZZC  28 h121
M  ZZC  29 h122
M  ZZC  30 h131
M  ZZC  31 h132
M  ZZM   1 40
M  ZZI   1 224
M  ZZM   2 37
M  ZZI   2 124
M  ZZM   3 37
M  ZZI   3 124
M  ZZM   4 3
M  ZZI   4 121
M  ZZM   5 7
M  ZZI   5 81
M  ZZM   6 10
M  ZZI   6 192
M  ZZM   7 3
M  ZZI   7 121
M  ZZM   8 7
M  ZZI   8 81
M  ZZM   9 37
M  ZZI   9 124
M  ZZM  10 37
M  ZZI  10 125
M  ZZM  11 37
M  ZZI  11 125
M  ZZM  12 37
M  ZZI  12 125
M  ZZM  13 1
M  ZZI  13 113
M  ZZM  14 3
M  ZZI  14 121
M  ZZM  15 7
M  ZZI  15 81
M  ZZM  16 10
M  ZZI  16 191
M  ZZM  17 3
M  ZZI  17 121
M  ZZM  18 7
M  ZZI  18 81
M  ZZM  19 1
M  ZZI  19 112
M  ZZM  20 1
M  ZZI  20 112
M  ZZM  21 28
M  ZZI  21 11
M  ZZM  22 28
M  ZZI  22 11
M  ZZM  23 5
M  ZZI  23 1
M  ZZM  24 5
M  ZZI  24 1
M  ZZM  25 5
M  ZZI  25 1
M  ZZM  26 5
M  ZZI  26 1
M  ZZM  27 28
M  ZZI  27 11
M  ZZM  28 5
M  ZZI  28 1
M  ZZM  29 5
M  ZZI  29 1
M  ZZM  30 5
M  ZZI  30 1
M  ZZM  31 5
M  ZZI  31 1
M  END
> <IX>
1

> <NAME>
Cereblon_5MO4_3.pdb

> <Score>
-20.742351

> <Natom>
31

> <Nflex>
1

> <Hbond>
-4.535601

> <Hphob>
-3.541053

> <VwInt>
-22.850248

> <Dsolv>
13.52327

> <SolEl>
7.500833

> <Eintl>
0.437451

> <RecConf>
ND

> <projPath>
Cereblon_maps/

> <NAME_>
Cereblon_5MO4_3.pdb

$$$$
