Cereblon_4QNQ_39.pdb
  MOLSOFT 04032206233D

 31 33  0  0  1  0  0  0  0  0999 V2000
   76.7295   41.9835   40.4791 N   0  0  0  0  0  0  0  0  0  0  0  0
   76.3187   40.6750   40.1816 C   0  0  0  0  0  0  0  0  0  0  0  0
   75.2207   40.4104   39.3819 C   0  0  0  0  0  0  0  0  0  0  0  0
   74.3423   41.3445   38.6883 C   0  0  0  0  0  0  0  0  0  0  0  0
   74.4008   42.5536   38.8546 O   0  0  0  0  0  0  0  0  0  0  0  0
   73.4795   40.5806   37.9248 N   0  0  0  0  0  0  0  0  0  0  0  0
   73.6886   39.2360   38.1604 C   0  0  0  0  0  0  0  0  0  0  0  0
   73.0962   38.2664   37.7096 O   0  0  0  0  0  0  0  0  0  0  0  0
   74.8075   39.1468   39.0968 C   0  0  0  0  0  0  0  0  0  0  0  0
   75.4218   38.0355   39.6428 C   0  0  0  0  0  0  0  0  0  0  0  0
   76.4894   38.2709   40.5008 C   0  0  0  0  0  0  0  0  0  0  0  0
   76.9230   39.5694   40.7718 C   0  0  0  0  0  0  0  0  0  0  0  0
   72.3959   41.0786   37.0654 C   0  0  1  0  0  0  0  0  0  0  0  0
   71.1505   41.3409   37.9060 C   0  0  0  0  0  0  0  0  0  0  0  0
   70.8899   40.7229   38.9279 O   0  0  0  0  0  0  0  0  0  0  0  0
   70.2657   42.2639   37.3992 N   0  0  0  0  0  0  0  0  0  0  0  0
   70.3847   43.0482   36.2834 C   0  0  0  0  0  0  0  0  0  0  0  0
   69.5641   43.9163   36.0308 O   0  0  0  0  0  0  0  0  0  0  0  0
   71.5713   42.7490   35.4032 C   0  0  0  0  0  0  0  0  0  0  0  0
   72.7619   42.3142   36.2424 C   0  0  0  0  0  0  0  0  0  0  0  0
   77.6677   42.1126   40.8525 H   0  0  0  0  0  0  0  0  0  0  0  0
   76.3430   42.7424   39.9176 H   0  0  0  0  0  0  0  0  0  0  0  0
   75.0861   37.0280   39.4155 H   0  0  0  0  0  0  0  0  0  0  0  0
   76.9972   37.4307   40.9649 H   0  0  0  0  0  0  0  0  0  0  0  0
   77.7575   39.7164   41.4501 H   0  0  0  0  0  0  0  0  0  0  0  0
   72.1249   40.2671   36.3799 H   0  0  0  0  0  0  0  0  0  0  0  0
   69.4377   42.4339   37.9512 H   0  0  0  0  0  0  0  0  0  0  0  0
   71.2862   41.9721   34.6859 H   0  0  0  0  0  0  0  0  0  0  0  0
   71.8204   43.6536   34.8435 H   0  0  0  0  0  0  0  0  0  0  0  0
   73.6191   42.0982   35.5970 H   0  0  0  0  0  0  0  0  0  0  0  0
   73.0547   43.1481   36.8875 H   0  0  0  0  0  0  0  0  0  0  0  0
  1  2  1  0  0  0  0
  1 21  1  0  0  0  0
  1 22  1  0  0  0  0
  2  3  1  0  0  0  0
  2 12  2  0  0  0  0
  3  9  2  0  0  0  0
  3  4  1  0  0  0  0
  4  5  2  0  0  0  0
  4  6  1  0  0  0  0
  6  7  1  0  0  0  0
 13  6  1  0  0  0  0
  7  8  2  0  0  0  0
  7  9  1  0  0  0  0
  9 10  1  0  0  0  0
 10 23  1  0  0  0  0
 10 11  2  0  0  0  0
 11 12  1  0  0  0  0
 11 24  1  0  0  0  0
 12 25  1  0  0  0  0
 13 26  1  0  0  0  0
 13 14  1  0  0  0  0
 13 20  1  0  0  0  0
 14 15  2  0  0  0  0
 14 16  1  0  0  0  0
 16 27  1  0  0  0  0
 16 17  1  0  0  0  0
 17 18  2  0  0  0  0
 17 19  1  0  0  0  0
 19 28  1  0  0  0  0
 19 29  1  0  0  0  0
 19 20  1  0  0  0  0
 20 30  1  0  0  0  0
 20 31  1  0  0  0  0
M  ZZC   1 n1
M  ZZC   2 c1
M  ZZC   3 c2
M  ZZC   4 c3
M  ZZC   5 o1
M  ZZC   6 n2
M  ZZC   7 c4
M  ZZC   8 o2
M  ZZC   9 c5
M  ZZC  10 c6
M  ZZC  11 c7
M  ZZC  12 c8
M  ZZC  13 c9
M  ZZC  14 c10
M  ZZC  15 o3
M  ZZC  16 n3
M  ZZC  17 c11
M  ZZC  18 o4
M  ZZC  19 c12
M  ZZC  20 c13
M  ZZC  21 h11
M  ZZC  22 h12
M  ZZC  23 h61
M  ZZC  24 h71
M  ZZC  25 h81
M  ZZC  26 h91
M  ZZC  27 h31
M  ZZC  28 h121
M  ZZC  29 h122
M  ZZC  30 h131
M  ZZC  31 h132
M  ZZM   1 40
M  ZZI   1 224
M  ZZM   2 37
M  ZZI   2 124
M  ZZM   3 37
M  ZZI   3 124
M  ZZM   4 3
M  ZZI   4 121
M  ZZM   5 7
M  ZZI   5 81
M  ZZM   6 10
M  ZZI   6 192
M  ZZM   7 3
M  ZZI   7 121
M  ZZM   8 7
M  ZZI   8 81
M  ZZM   9 37
M  ZZI   9 124
M  ZZM  10 37
M  ZZI  10 125
M  ZZM  11 37
M  ZZI  11 125
M  ZZM  12 37
M  ZZI  12 125
M  ZZM  13 1
M  ZZI  13 113
M  ZZM  14 3
M  ZZI  14 121
M  ZZM  15 7
M  ZZI  15 81
M  ZZM  16 10
M  ZZI  16 191
M  ZZM  17 3
M  ZZI  17 121
M  ZZM  18 7
M  ZZI  18 81
M  ZZM  19 1
M  ZZI  19 112
M  ZZM  20 1
M  ZZI  20 112
M  ZZM  21 28
M  ZZI  21 11
M  ZZM  22 28
M  ZZI  22 11
M  ZZM  23 5
M  ZZI  23 1
M  ZZM  24 5
M  ZZI  24 1
M  ZZM  25 5
M  ZZI  25 1
M  ZZM  26 5
M  ZZI  26 1
M  ZZM  27 28
M  ZZI  27 11
M  ZZM  28 5
M  ZZI  28 1
M  ZZM  29 5
M  ZZI  29 1
M  ZZM  30 5
M  ZZI  30 1
M  ZZM  31 5
M  ZZI  31 1
M  END
> <IX>
1

> <NAME>
Cereblon_4QNQ_39.pdb

> <Score>
-19.553003

> <Natom>
31

> <Nflex>
1

> <Hbond>
-4.851659

> <Hphob>
-3.532318

> <VwInt>
-25.282478

> <Dsolv>
15.913412

> <SolEl>
10.619498

> <Eintl>
1.378163

> <RecConf>
ND

> <projPath>
Cereblon_maps/

> <NAME_>
Cereblon_4QNQ_39.pdb

$$$$
