Cereblon_6YBK_7.pdb
  MOLSOFT 04032206303D

 31 33  0  0  1  0  0  0  0  0999 V2000
   78.8133   41.6784   43.8185 N   0  0  0  0  0  0  0  0  0  0  0  0
   78.9067   42.4224   42.6317 C   0  0  0  0  0  0  0  0  0  0  0  0
   78.1005   42.1567   41.5377 C   0  0  0  0  0  0  0  0  0  0  0  0
   77.1799   41.0459   41.3309 C   0  0  0  0  0  0  0  0  0  0  0  0
   76.9993   40.1632   42.1567 O   0  0  0  0  0  0  0  0  0  0  0  0
   76.6450   41.2098   40.0686 N   0  0  0  0  0  0  0  0  0  0  0  0
   77.1657   42.3304   39.4544 C   0  0  0  0  0  0  0  0  0  0  0  0
   76.9532   42.7534   38.3255 O   0  0  0  0  0  0  0  0  0  0  0  0
   78.0967   42.9263   40.4140 C   0  0  0  0  0  0  0  0  0  0  0  0
   78.9078   44.0362   40.2929 C   0  0  0  0  0  0  0  0  0  0  0  0
   79.7235   44.3369   41.3776 C   0  0  0  0  0  0  0  0  0  0  0  0
   79.7109   43.5541   42.5337 C   0  0  0  0  0  0  0  0  0  0  0  0
   75.6248   40.3740   39.4320 C   0  0  2  0  0  0  0  0  0  0  0  0
   74.2537   40.9530   39.7368 C   0  0  0  0  0  0  0  0  0  0  0  0
   74.0826   42.1330   39.9939 O   0  0  0  0  0  0  0  0  0  0  0  0
   73.1928   40.0878   39.6223 N   0  0  0  0  0  0  0  0  0  0  0  0
   73.2175   38.7497   39.3109 C   0  0  0  0  0  0  0  0  0  0  0  0
   72.1923   38.0969   39.2039 O   0  0  0  0  0  0  0  0  0  0  0  0
   74.5802   38.1506   39.0573 C   0  0  0  0  0  0  0  0  0  0  0  0
   75.6581   38.8993   39.8210 C   0  0  0  0  0  0  0  0  0  0  0  0
   79.5551   41.7606   44.5101 H   0  0  0  0  0  0  0  0  0  0  0  0
   78.3236   40.7832   43.7762 H   0  0  0  0  0  0  0  0  0  0  0  0
   78.8997   44.6440   39.3957 H   0  0  0  0  0  0  0  0  0  0  0  0
   80.3709   45.2056   41.3331 H   0  0  0  0  0  0  0  0  0  0  0  0
   80.3415   43.8373   43.3707 H   0  0  0  0  0  0  0  0  0  0  0  0
   75.7593   40.4742   38.3538 H   0  0  0  0  0  0  0  0  0  0  0  0
   72.2778   40.4899   39.7835 H   0  0  0  0  0  0  0  0  0  0  0  0
   74.5647   37.1027   39.3736 H   0  0  0  0  0  0  0  0  0  0  0  0
   74.7687   38.1754   37.9798 H   0  0  0  0  0  0  0  0  0  0  0  0
   75.4740   38.7715   40.8918 H   0  0  0  0  0  0  0  0  0  0  0  0
   76.6429   38.4684   39.6128 H   0  0  0  0  0  0  0  0  0  0  0  0
  1  2  1  0  0  0  0
  1 21  1  0  0  0  0
  1 22  1  0  0  0  0
  2  3  1  0  0  0  0
  2 12  2  0  0  0  0
  3  9  2  0  0  0  0
  3  4  1  0  0  0  0
  4  5  2  0  0  0  0
  4  6  1  0  0  0  0
  6  7  1  0  0  0  0
 13  6  1  0  0  0  0
  7  8  2  0  0  0  0
  7  9  1  0  0  0  0
  9 10  1  0  0  0  0
 10 23  1  0  0  0  0
 10 11  2  0  0  0  0
 11 12  1  0  0  0  0
 11 24  1  0  0  0  0
 12 25  1  0  0  0  0
 13 26  1  0  0  0  0
 13 14  1  0  0  0  0
 13 20  1  0  0  0  0
 14 15  2  0  0  0  0
 14 16  1  0  0  0  0
 16 27  1  0  0  0  0
 16 17  1  0  0  0  0
 17 18  2  0  0  0  0
 17 19  1  0  0  0  0
 19 28  1  0  0  0  0
 19 29  1  0  0  0  0
 19 20  1  0  0  0  0
 20 30  1  0  0  0  0
 20 31  1  0  0  0  0
M  ZZC   1 n1
M  ZZC   2 c1
M  ZZC   3 c2
M  ZZC   4 c3
M  ZZC   5 o1
M  ZZC   6 n2
M  ZZC   7 c4
M  ZZC   8 o2
M  ZZC   9 c5
M  ZZC  10 c6
M  ZZC  11 c7
M  ZZC  12 c8
M  ZZC  13 c9
M  ZZC  14 c10
M  ZZC  15 o3
M  ZZC  16 n3
M  ZZC  17 c11
M  ZZC  18 o4
M  ZZC  19 c12
M  ZZC  20 c13
M  ZZC  21 h11
M  ZZC  22 h12
M  ZZC  23 h61
M  ZZC  24 h71
M  ZZC  25 h81
M  ZZC  26 h91
M  ZZC  27 h31
M  ZZC  28 h121
M  ZZC  29 h122
M  ZZC  30 h131
M  ZZC  31 h132
M  ZZM   1 40
M  ZZI   1 224
M  ZZM   2 37
M  ZZI   2 124
M  ZZM   3 37
M  ZZI   3 124
M  ZZM   4 3
M  ZZI   4 121
M  ZZM   5 7
M  ZZI   5 81
M  ZZM   6 10
M  ZZI   6 192
M  ZZM   7 3
M  ZZI   7 121
M  ZZM   8 7
M  ZZI   8 81
M  ZZM   9 37
M  ZZI   9 124
M  ZZM  10 37
M  ZZI  10 125
M  ZZM  11 37
M  ZZI  11 125
M  ZZM  12 37
M  ZZI  12 125
M  ZZM  13 1
M  ZZI  13 113
M  ZZM  14 3
M  ZZI  14 121
M  ZZM  15 7
M  ZZI  15 81
M  ZZM  16 10
M  ZZI  16 191
M  ZZM  17 3
M  ZZI  17 121
M  ZZM  18 7
M  ZZI  18 81
M  ZZM  19 1
M  ZZI  19 112
M  ZZM  20 1
M  ZZI  20 112
M  ZZM  21 28
M  ZZI  21 11
M  ZZM  22 28
M  ZZI  22 11
M  ZZM  23 5
M  ZZI  23 1
M  ZZM  24 5
M  ZZI  24 1
M  ZZM  25 5
M  ZZI  25 1
M  ZZM  26 5
M  ZZI  26 1
M  ZZM  27 28
M  ZZI  27 11
M  ZZM  28 5
M  ZZI  28 1
M  ZZM  29 5
M  ZZI  29 1
M  ZZM  30 5
M  ZZI  30 1
M  ZZM  31 5
M  ZZI  31 1
M  END
> <IX>
1

> <NAME>
Cereblon_6YBK_7.pdb

> <Score>
-18.595871

> <Natom>
31

> <Nflex>
1

> <Hbond>
-3.678637

> <Hphob>
-3.552587

> <VwInt>
-24.290792

> <Dsolv>
15.157659

> <SolEl>
6.674237

> <Eintl>
1.681442

> <RecConf>
ND

> <projPath>
Cereblon_maps/

> <NAME_>
Cereblon_6YBK_7.pdb

$$$$
