Cereblon_5UVX_1.pdb
  MOLSOFT 04032206273D

 30 32  0  0  1  0  0  0  0  0999 V2000
   78.9636   42.3519   42.8084 C   0  0  0  0  0  0  0  0  0  0  0  0
   78.1567   42.0583   41.7216 C   0  0  0  0  0  0  0  0  0  0  0  0
   78.1633   42.8643   40.6139 C   0  0  0  0  0  0  0  0  0  0  0  0
   77.2332   42.3032   39.6265 C   0  0  0  0  0  0  0  0  0  0  0  0
   77.0143   42.7696   38.5158 O   0  0  0  0  0  0  0  0  0  0  0  0
   76.7087   41.1587   40.1952 N   0  0  0  0  0  0  0  0  0  0  0  0
   75.6945   40.3312   39.5368 C   0  0  2  0  0  0  0  0  0  0  0  0
   74.3114   40.9157   39.7960 C   0  0  0  0  0  0  0  0  0  0  0  0
   74.1236   42.1036   40.0020 O   0  0  0  0  0  0  0  0  0  0  0  0
   73.2562   40.0405   39.7117 N   0  0  0  0  0  0  0  0  0  0  0  0
   73.2876   38.6908   39.4624 C   0  0  0  0  0  0  0  0  0  0  0  0
   72.2680   38.0232   39.4067 O   0  0  0  0  0  0  0  0  0  0  0  0
   74.6505   38.0953   39.2101 C   0  0  0  0  0  0  0  0  0  0  0  0
   75.7332   38.8637   39.9465 C   0  0  0  0  0  0  0  0  0  0  0  0
   77.2324   40.9131   41.5292 C   0  0  0  0  0  0  0  0  0  0  0  0
   78.9679   43.9817   40.5059 C   0  0  0  0  0  0  0  0  0  0  0  0
   79.7898   44.2732   41.5856 C   0  0  0  0  0  0  0  0  0  0  0  0
   79.7868   43.4685   42.7229 C   0  0  0  0  0  0  0  0  0  0  0  0
   78.9638   41.7264   43.6965 H   0  0  0  0  0  0  0  0  0  0  0  0
   75.8587   40.4208   38.4608 H   0  0  0  0  0  0  0  0  0  0  0  0
   72.3390   40.4438   39.8562 H   0  0  0  0  0  0  0  0  0  0  0  0
   74.6447   37.0538   39.5469 H   0  0  0  0  0  0  0  0  0  0  0  0
   74.8259   38.1018   38.1297 H   0  0  0  0  0  0  0  0  0  0  0  0
   75.5782   38.7597   41.0251 H   0  0  0  0  0  0  0  0  0  0  0  0
   76.7150   38.4324   39.7247 H   0  0  0  0  0  0  0  0  0  0  0  0
   77.7742   39.9614   41.5423 H   0  0  0  0  0  0  0  0  0  0  0  0
   76.4232   40.9140   42.2624 H   0  0  0  0  0  0  0  0  0  0  0  0
   78.9550   44.6005   39.6161 H   0  0  0  0  0  0  0  0  0  0  0  0
   80.4367   45.1422   41.5466 H   0  0  0  0  0  0  0  0  0  0  0  0
   80.4370   43.7177   43.5563 H   0  0  0  0  0  0  0  0  0  0  0  0
  1 19  1  0  0  0  0
  1 18  2  0  0  0  0
  1  2  1  0  0  0  0
  2  3  2  0  0  0  0
  2 15  1  0  0  0  0
  3 16  1  0  0  0  0
  3  4  1  0  0  0  0
  4  6  1  0  0  0  0
  4  5  2  0  0  0  0
  6 15  1  0  0  0  0
  7  6  1  0  0  0  0
  7 20  1  0  0  0  0
  7  8  1  0  0  0  0
  7 14  1  0  0  0  0
  8  9  2  0  0  0  0
  8 10  1  0  0  0  0
 10 21  1  0  0  0  0
 10 11  1  0  0  0  0
 11 12  2  0  0  0  0
 11 13  1  0  0  0  0
 13 22  1  0  0  0  0
 13 23  1  0  0  0  0
 13 14  1  0  0  0  0
 14 24  1  0  0  0  0
 14 25  1  0  0  0  0
 15 26  1  0  0  0  0
 15 27  1  0  0  0  0
 16 17  2  0  0  0  0
 16 28  1  0  0  0  0
 17 18  1  0  0  0  0
 17 29  1  0  0  0  0
 18 30  1  0  0  0  0
M  ZZC   1 c1
M  ZZC   2 c2
M  ZZC   3 c3
M  ZZC   4 c4
M  ZZC   5 o1
M  ZZC   6 n1
M  ZZC   7 c5
M  ZZC   8 c6
M  ZZC   9 o2
M  ZZC  10 n2
M  ZZC  11 c7
M  ZZC  12 o3
M  ZZC  13 c8
M  ZZC  14 c9
M  ZZC  15 c10
M  ZZC  16 c11
M  ZZC  17 c12
M  ZZC  18 c13
M  ZZC  19 h11
M  ZZC  20 h51
M  ZZC  21 h21
M  ZZC  22 h81
M  ZZC  23 h82
M  ZZC  24 h91
M  ZZC  25 h92
M  ZZC  26 h101
M  ZZC  27 h102
M  ZZC  28 h111
M  ZZC  29 h121
M  ZZC  30 h131
M  ZZM   1 37
M  ZZI   1 125
M  ZZM   2 37
M  ZZI   2 124
M  ZZM   3 37
M  ZZI   3 124
M  ZZM   4 3
M  ZZI   4 121
M  ZZM   5 7
M  ZZI   5 81
M  ZZM   6 10
M  ZZI   6 192
M  ZZM   7 1
M  ZZI   7 113
M  ZZM   8 3
M  ZZI   8 121
M  ZZM   9 7
M  ZZI   9 81
M  ZZM  10 10
M  ZZI  10 191
M  ZZM  11 3
M  ZZI  11 121
M  ZZM  12 7
M  ZZI  12 81
M  ZZM  13 1
M  ZZI  13 112
M  ZZM  14 1
M  ZZI  14 112
M  ZZM  15 1
M  ZZI  15 112
M  ZZM  16 37
M  ZZI  16 125
M  ZZM  17 37
M  ZZI  17 125
M  ZZM  18 37
M  ZZI  18 125
M  ZZM  19 5
M  ZZI  19 1
M  ZZM  20 5
M  ZZI  20 1
M  ZZM  21 28
M  ZZI  21 11
M  ZZM  22 5
M  ZZI  22 1
M  ZZM  23 5
M  ZZI  23 1
M  ZZM  24 5
M  ZZI  24 1
M  ZZM  25 5
M  ZZI  25 1
M  ZZM  26 5
M  ZZI  26 1
M  ZZM  27 5
M  ZZI  27 1
M  ZZM  28 5
M  ZZI  28 1
M  ZZM  29 5
M  ZZI  29 1
M  ZZM  30 5
M  ZZI  30 1
M  END
> <IX>
1

> <NAME>
Cereblon_5UVX_1.pdb

> <Score>
-18.983997

> <Natom>
30

> <Nflex>
1

> <Hbond>
-3.272777

> <Hphob>
-3.915577

> <VwInt>
-21.05842

> <Dsolv>
10.974178

> <SolEl>
5.330549

> <Eintl>
1.048648

> <RecConf>
ND

> <projPath>
Cereblon_maps/

> <NAME_>
Cereblon_5UVX_1.pdb

$$$$
