Cereblon_4IPF_4.pdb
  MOLSOFT 04032206233D

 30 32  0  0  1  0  0  0  0  0999 V2000
   77.6522   41.1466   42.0946 C   0  0  0  0  0  0  0  0  0  0  0  0
   77.0029   41.1965   40.8713 C   0  0  0  0  0  0  0  0  0  0  0  0
   77.2890   42.1911   39.9754 C   0  0  0  0  0  0  0  0  0  0  0  0
   76.4279   42.0092   38.8005 C   0  0  0  0  0  0  0  0  0  0  0  0
   76.4542   42.7116   37.7996 O   0  0  0  0  0  0  0  0  0  0  0  0
   75.5935   40.9420   39.0800 N   0  0  0  0  0  0  0  0  0  0  0  0
   74.2882   40.7597   38.4240 C   0  0  2  0  0  0  0  0  0  0  0  0
   73.2544   41.5380   39.2198 C   0  0  0  0  0  0  0  0  0  0  0  0
   73.5644   42.3983   40.0270 O   0  0  0  0  0  0  0  0  0  0  0  0
   71.9397   41.2501   38.9441 N   0  0  0  0  0  0  0  0  0  0  0  0
   71.4424   40.2284   38.1720 C   0  0  0  0  0  0  0  0  0  0  0  0
   70.2427   40.1103   37.9673 O   0  0  0  0  0  0  0  0  0  0  0  0
   72.4739   39.2993   37.5635 C   0  0  0  0  0  0  0  0  0  0  0  0
   73.7955   39.3205   38.3249 C   0  0  0  0  0  0  0  0  0  0  0  0
   75.9498   40.2994   40.3307 C   0  0  0  0  0  0  0  0  0  0  0  0
   78.2224   43.1829   40.2256 C   0  0  0  0  0  0  0  0  0  0  0  0
   78.8861   43.1307   41.4445 C   0  0  0  0  0  0  0  0  0  0  0  0
   78.5948   42.1295   42.3709 C   0  0  0  0  0  0  0  0  0  0  0  0
   77.4280   40.3732   42.8231 H   0  0  0  0  0  0  0  0  0  0  0  0
   74.3357   41.2300   37.4346 H   0  0  0  0  0  0  0  0  0  0  0  0
   71.2588   41.8618   39.3766 H   0  0  0  0  0  0  0  0  0  0  0  0
   72.0661   38.2836   37.5613 H   0  0  0  0  0  0  0  0  0  0  0  0
   72.6269   39.6031   36.5222 H   0  0  0  0  0  0  0  0  0  0  0  0
   73.6494   38.8946   39.3246 H   0  0  0  0  0  0  0  0  0  0  0  0
   74.5294   38.6874   37.8188 H   0  0  0  0  0  0  0  0  0  0  0  0
   76.3242   39.2901   40.1279 H   0  0  0  0  0  0  0  0  0  0  0  0
   75.0809   40.2732   40.9834 H   0  0  0  0  0  0  0  0  0  0  0  0
   78.4261   43.9685   39.5054 H   0  0  0  0  0  0  0  0  0  0  0  0
   79.6242   43.8889   41.6863 H   0  0  0  0  0  0  0  0  0  0  0  0
   79.1120   42.1176   43.3256 H   0  0  0  0  0  0  0  0  0  0  0  0
  1 19  1  0  0  0  0
  1 18  2  0  0  0  0
  1  2  1  0  0  0  0
  2  3  2  0  0  0  0
  2 15  1  0  0  0  0
  3 16  1  0  0  0  0
  3  4  1  0  0  0  0
  4  6  1  0  0  0  0
  4  5  2  0  0  0  0
  6 15  1  0  0  0  0
  7  6  1  0  0  0  0
  7 20  1  0  0  0  0
  7  8  1  0  0  0  0
  7 14  1  0  0  0  0
  8  9  2  0  0  0  0
  8 10  1  0  0  0  0
 10 21  1  0  0  0  0
 10 11  1  0  0  0  0
 11 12  2  0  0  0  0
 11 13  1  0  0  0  0
 13 22  1  0  0  0  0
 13 23  1  0  0  0  0
 13 14  1  0  0  0  0
 14 24  1  0  0  0  0
 14 25  1  0  0  0  0
 15 26  1  0  0  0  0
 15 27  1  0  0  0  0
 16 17  2  0  0  0  0
 16 28  1  0  0  0  0
 17 18  1  0  0  0  0
 17 29  1  0  0  0  0
 18 30  1  0  0  0  0
M  ZZC   1 c1
M  ZZC   2 c2
M  ZZC   3 c3
M  ZZC   4 c4
M  ZZC   5 o1
M  ZZC   6 n1
M  ZZC   7 c5
M  ZZC   8 c6
M  ZZC   9 o2
M  ZZC  10 n2
M  ZZC  11 c7
M  ZZC  12 o3
M  ZZC  13 c8
M  ZZC  14 c9
M  ZZC  15 c10
M  ZZC  16 c11
M  ZZC  17 c12
M  ZZC  18 c13
M  ZZC  19 h11
M  ZZC  20 h51
M  ZZC  21 h21
M  ZZC  22 h81
M  ZZC  23 h82
M  ZZC  24 h91
M  ZZC  25 h92
M  ZZC  26 h101
M  ZZC  27 h102
M  ZZC  28 h111
M  ZZC  29 h121
M  ZZC  30 h131
M  ZZM   1 37
M  ZZI   1 125
M  ZZM   2 37
M  ZZI   2 124
M  ZZM   3 37
M  ZZI   3 124
M  ZZM   4 3
M  ZZI   4 121
M  ZZM   5 7
M  ZZI   5 81
M  ZZM   6 10
M  ZZI   6 192
M  ZZM   7 1
M  ZZI   7 113
M  ZZM   8 3
M  ZZI   8 121
M  ZZM   9 7
M  ZZI   9 81
M  ZZM  10 10
M  ZZI  10 191
M  ZZM  11 3
M  ZZI  11 121
M  ZZM  12 7
M  ZZI  12 81
M  ZZM  13 1
M  ZZI  13 112
M  ZZM  14 1
M  ZZI  14 112
M  ZZM  15 1
M  ZZI  15 112
M  ZZM  16 37
M  ZZI  16 125
M  ZZM  17 37
M  ZZI  17 125
M  ZZM  18 37
M  ZZI  18 125
M  ZZM  19 5
M  ZZI  19 1
M  ZZM  20 5
M  ZZI  20 1
M  ZZM  21 28
M  ZZI  21 11
M  ZZM  22 5
M  ZZI  22 1
M  ZZM  23 5
M  ZZI  23 1
M  ZZM  24 5
M  ZZI  24 1
M  ZZM  25 5
M  ZZI  25 1
M  ZZM  26 5
M  ZZI  26 1
M  ZZM  27 5
M  ZZI  27 1
M  ZZM  28 5
M  ZZI  28 1
M  ZZM  29 5
M  ZZI  29 1
M  ZZM  30 5
M  ZZI  30 1
M  END
> <IX>
1

> <NAME>
Cereblon_4IPF_4.pdb

> <Score>
-15.995827

> <Natom>
30

> <Nflex>
1

> <Hbond>
-4.233316

> <Hphob>
-3.700654

> <VwInt>
-19.430843

> <Dsolv>
13.908044

> <SolEl>
4.92959

> <Eintl>
3.9003

> <RecConf>
ND

> <projPath>
Cereblon_maps/

> <NAME_>
Cereblon_4IPF_4.pdb

$$$$
