Cereblon_5P9J_22.pdb
  MOLSOFT 04032206263D

 30 32  0  0  1  0  0  0  0  0999 V2000
   75.2601   39.9250   40.0783 C   0  0  0  0  0  0  0  0  0  0  0  0
   74.5301   40.5210   39.0645 C   0  0  0  0  0  0  0  0  0  0  0  0
   74.9238   41.7236   38.5559 C   0  0  0  0  0  0  0  0  0  0  0  0
   74.0054   42.0891   37.4781 C   0  0  0  0  0  0  0  0  0  0  0  0
   74.1578   43.0949   36.8055 O   0  0  0  0  0  0  0  0  0  0  0  0
   73.0473   41.0923   37.4008 N   0  0  0  0  0  0  0  0  0  0  0  0
   71.9269   40.9837   36.4453 C   0  0  1  0  0  0  0  0  0  0  0  0
   70.5682   41.0214   37.1456 C   0  0  0  0  0  0  0  0  0  0  0  0
   70.1736   40.1406   37.8947 O   0  0  0  0  0  0  0  0  0  0  0  0
   69.7706   42.1129   36.9195 N   0  0  0  0  0  0  0  0  0  0  0  0
   70.0234   43.2245   36.1763 C   0  0  0  0  0  0  0  0  0  0  0  0
   69.1860   44.1037   36.0858 O   0  0  0  0  0  0  0  0  0  0  0  0
   71.3868   43.3180   35.5617 C   0  0  0  0  0  0  0  0  0  0  0  0
   71.9402   41.9353   35.2433 C   0  0  0  0  0  0  0  0  0  0  0  0
   73.3018   40.0437   38.3788 C   0  0  0  0  0  0  0  0  0  0  0  0
   76.0265   42.4187   39.0169 C   0  0  0  0  0  0  0  0  0  0  0  0
   76.7434   41.8413   40.0527 C   0  0  0  0  0  0  0  0  0  0  0  0
   76.3666   40.6052   40.5723 C   0  0  0  0  0  0  0  0  0  0  0  0
   74.9762   38.9578   40.4811 H   0  0  0  0  0  0  0  0  0  0  0  0
   72.0173   39.9743   36.0282 H   0  0  0  0  0  0  0  0  0  0  0  0
   68.8477   42.0881   37.3358 H   0  0  0  0  0  0  0  0  0  0  0  0
   71.2992   43.8992   34.6402 H   0  0  0  0  0  0  0  0  0  0  0  0
   72.0189   43.8801   36.2515 H   0  0  0  0  0  0  0  0  0  0  0  0
   71.3111   41.5010   34.4573 H   0  0  0  0  0  0  0  0  0  0  0  0
   72.9426   42.0154   34.8146 H   0  0  0  0  0  0  0  0  0  0  0  0
   73.4701   39.0924   37.8621 H   0  0  0  0  0  0  0  0  0  0  0  0
   72.4644   39.9741   39.0807 H   0  0  0  0  0  0  0  0  0  0  0  0
   76.3217   43.3726   38.5919 H   0  0  0  0  0  0  0  0  0  0  0  0
   77.6123   42.3536   40.4549 H   0  0  0  0  0  0  0  0  0  0  0  0
   76.9503   40.1660   41.3756 H   0  0  0  0  0  0  0  0  0  0  0  0
  1 19  1  0  0  0  0
  1 18  2  0  0  0  0
  1  2  1  0  0  0  0
  2  3  2  0  0  0  0
  2 15  1  0  0  0  0
  3 16  1  0  0  0  0
  3  4  1  0  0  0  0
  4  6  1  0  0  0  0
  4  5  2  0  0  0  0
  6 15  1  0  0  0  0
  7  6  1  0  0  0  0
  7 20  1  0  0  0  0
  7  8  1  0  0  0  0
  7 14  1  0  0  0  0
  8  9  2  0  0  0  0
  8 10  1  0  0  0  0
 10 21  1  0  0  0  0
 10 11  1  0  0  0  0
 11 12  2  0  0  0  0
 11 13  1  0  0  0  0
 13 22  1  0  0  0  0
 13 23  1  0  0  0  0
 13 14  1  0  0  0  0
 14 24  1  0  0  0  0
 14 25  1  0  0  0  0
 15 26  1  0  0  0  0
 15 27  1  0  0  0  0
 16 17  2  0  0  0  0
 16 28  1  0  0  0  0
 17 18  1  0  0  0  0
 17 29  1  0  0  0  0
 18 30  1  0  0  0  0
M  ZZC   1 c1
M  ZZC   2 c2
M  ZZC   3 c3
M  ZZC   4 c4
M  ZZC   5 o1
M  ZZC   6 n1
M  ZZC   7 c5
M  ZZC   8 c6
M  ZZC   9 o2
M  ZZC  10 n2
M  ZZC  11 c7
M  ZZC  12 o3
M  ZZC  13 c8
M  ZZC  14 c9
M  ZZC  15 c10
M  ZZC  16 c11
M  ZZC  17 c12
M  ZZC  18 c13
M  ZZC  19 h11
M  ZZC  20 h51
M  ZZC  21 h21
M  ZZC  22 h81
M  ZZC  23 h82
M  ZZC  24 h91
M  ZZC  25 h92
M  ZZC  26 h101
M  ZZC  27 h102
M  ZZC  28 h111
M  ZZC  29 h121
M  ZZC  30 h131
M  ZZM   1 37
M  ZZI   1 125
M  ZZM   2 37
M  ZZI   2 124
M  ZZM   3 37
M  ZZI   3 124
M  ZZM   4 3
M  ZZI   4 121
M  ZZM   5 7
M  ZZI   5 81
M  ZZM   6 10
M  ZZI   6 192
M  ZZM   7 1
M  ZZI   7 113
M  ZZM   8 3
M  ZZI   8 121
M  ZZM   9 7
M  ZZI   9 81
M  ZZM  10 10
M  ZZI  10 191
M  ZZM  11 3
M  ZZI  11 121
M  ZZM  12 7
M  ZZI  12 81
M  ZZM  13 1
M  ZZI  13 112
M  ZZM  14 1
M  ZZI  14 112
M  ZZM  15 1
M  ZZI  15 112
M  ZZM  16 37
M  ZZI  16 125
M  ZZM  17 37
M  ZZI  17 125
M  ZZM  18 37
M  ZZI  18 125
M  ZZM  19 5
M  ZZI  19 1
M  ZZM  20 5
M  ZZI  20 1
M  ZZM  21 28
M  ZZI  21 11
M  ZZM  22 5
M  ZZI  22 1
M  ZZM  23 5
M  ZZI  23 1
M  ZZM  24 5
M  ZZI  24 1
M  ZZM  25 5
M  ZZI  25 1
M  ZZM  26 5
M  ZZI  26 1
M  ZZM  27 5
M  ZZI  27 1
M  ZZM  28 5
M  ZZI  28 1
M  ZZM  29 5
M  ZZI  29 1
M  ZZM  30 5
M  ZZI  30 1
M  END
> <IX>
1

> <NAME>
Cereblon_5P9J_22.pdb

> <Score>
-17.257842

> <Natom>
30

> <Nflex>
1

> <Hbond>
-4.490834

> <Hphob>
-3.727559

> <VwInt>
-21.813234

> <Dsolv>
13.954117

> <SolEl>
5.288671

> <Eintl>
6.430925

> <RecConf>
ND

> <projPath>
Cereblon_maps/

> <NAME_>
Cereblon_5P9J_22.pdb

$$$$
