Cereblon_3MXF_17.pdb
  MOLSOFT 04032206223D

 30 32  0  0  1  0  0  0  0  0999 V2000
   77.8837   41.4347   42.1608 C   0  0  0  0  0  0  0  0  0  0  0  0
   77.1882   41.4194   40.9627 C   0  0  0  0  0  0  0  0  0  0  0  0
   77.4344   42.3687   40.0077 C   0  0  0  0  0  0  0  0  0  0  0  0
   76.5453   42.1148   38.8683 C   0  0  0  0  0  0  0  0  0  0  0  0
   76.5389   42.7610   37.8299 O   0  0  0  0  0  0  0  0  0  0  0  0
   75.7378   41.0497   39.2210 N   0  0  0  0  0  0  0  0  0  0  0  0
   74.4498   40.7693   38.5632 C   0  0  2  0  0  0  0  0  0  0  0  0
   73.3632   41.5463   39.2820 C   0  0  0  0  0  0  0  0  0  0  0  0
   73.6128   42.4492   40.0611 O   0  0  0  0  0  0  0  0  0  0  0  0
   72.0711   41.2037   38.9693 N   0  0  0  0  0  0  0  0  0  0  0  0
   71.6398   40.1255   38.2367 C   0  0  0  0  0  0  0  0  0  0  0  0
   70.4567   39.9677   37.9710 O   0  0  0  0  0  0  0  0  0  0  0  0
   72.7240   39.1826   37.7487 C   0  0  0  0  0  0  0  0  0  0  0  0
   74.0189   39.3088   38.5476 C   0  0  0  0  0  0  0  0  0  0  0  0
   76.1233   40.4897   40.5037 C   0  0  0  0  0  0  0  0  0  0  0  0
   78.3741   43.3730   40.1716 C   0  0  0  0  0  0  0  0  0  0  0  0
   79.0868   43.3845   41.3638 C   0  0  0  0  0  0  0  0  0  0  0  0
   78.8371   42.4293   42.3490 C   0  0  0  0  0  0  0  0  0  0  0  0
   77.6930   40.7001   42.9374 H   0  0  0  0  0  0  0  0  0  0  0  0
   74.4923   41.1810   37.5476 H   0  0  0  0  0  0  0  0  0  0  0  0
   71.3549   41.8196   39.3343 H   0  0  0  0  0  0  0  0  0  0  0  0
   72.3477   38.1573   37.8182 H   0  0  0  0  0  0  0  0  0  0  0  0
   72.9059   39.4027   36.6912 H   0  0  0  0  0  0  0  0  0  0  0  0
   73.8584   38.9434   39.5687 H   0  0  0  0  0  0  0  0  0  0  0  0
   74.7949   38.6765   38.1072 H   0  0  0  0  0  0  0  0  0  0  0  0
   76.4915   39.4680   40.3624 H   0  0  0  0  0  0  0  0  0  0  0  0
   75.2721   40.5147   41.1783 H   0  0  0  0  0  0  0  0  0  0  0  0
   78.5466   44.1206   39.4045 H   0  0  0  0  0  0  0  0  0  0  0  0
   79.8330   44.1535   41.5364 H   0  0  0  0  0  0  0  0  0  0  0  0
   79.3941   42.4637   43.2803 H   0  0  0  0  0  0  0  0  0  0  0  0
  1 19  1  0  0  0  0
  1 18  2  0  0  0  0
  1  2  1  0  0  0  0
  2  3  2  0  0  0  0
  2 15  1  0  0  0  0
  3 16  1  0  0  0  0
  3  4  1  0  0  0  0
  4  6  1  0  0  0  0
  4  5  2  0  0  0  0
  6 15  1  0  0  0  0
  7  6  1  0  0  0  0
  7 20  1  0  0  0  0
  7  8  1  0  0  0  0
  7 14  1  0  0  0  0
  8  9  2  0  0  0  0
  8 10  1  0  0  0  0
 10 21  1  0  0  0  0
 10 11  1  0  0  0  0
 11 12  2  0  0  0  0
 11 13  1  0  0  0  0
 13 22  1  0  0  0  0
 13 23  1  0  0  0  0
 13 14  1  0  0  0  0
 14 24  1  0  0  0  0
 14 25  1  0  0  0  0
 15 26  1  0  0  0  0
 15 27  1  0  0  0  0
 16 17  2  0  0  0  0
 16 28  1  0  0  0  0
 17 18  1  0  0  0  0
 17 29  1  0  0  0  0
 18 30  1  0  0  0  0
M  ZZC   1 c1
M  ZZC   2 c2
M  ZZC   3 c3
M  ZZC   4 c4
M  ZZC   5 o1
M  ZZC   6 n1
M  ZZC   7 c5
M  ZZC   8 c6
M  ZZC   9 o2
M  ZZC  10 n2
M  ZZC  11 c7
M  ZZC  12 o3
M  ZZC  13 c8
M  ZZC  14 c9
M  ZZC  15 c10
M  ZZC  16 c11
M  ZZC  17 c12
M  ZZC  18 c13
M  ZZC  19 h11
M  ZZC  20 h51
M  ZZC  21 h21
M  ZZC  22 h81
M  ZZC  23 h82
M  ZZC  24 h91
M  ZZC  25 h92
M  ZZC  26 h101
M  ZZC  27 h102
M  ZZC  28 h111
M  ZZC  29 h121
M  ZZC  30 h131
M  ZZM   1 37
M  ZZI   1 125
M  ZZM   2 37
M  ZZI   2 124
M  ZZM   3 37
M  ZZI   3 124
M  ZZM   4 3
M  ZZI   4 121
M  ZZM   5 7
M  ZZI   5 81
M  ZZM   6 10
M  ZZI   6 192
M  ZZM   7 1
M  ZZI   7 113
M  ZZM   8 3
M  ZZI   8 121
M  ZZM   9 7
M  ZZI   9 81
M  ZZM  10 10
M  ZZI  10 191
M  ZZM  11 3
M  ZZI  11 121
M  ZZM  12 7
M  ZZI  12 81
M  ZZM  13 1
M  ZZI  13 112
M  ZZM  14 1
M  ZZI  14 112
M  ZZM  15 1
M  ZZI  15 112
M  ZZM  16 37
M  ZZI  16 125
M  ZZM  17 37
M  ZZI  17 125
M  ZZM  18 37
M  ZZI  18 125
M  ZZM  19 5
M  ZZI  19 1
M  ZZM  20 5
M  ZZI  20 1
M  ZZM  21 28
M  ZZI  21 11
M  ZZM  22 5
M  ZZI  22 1
M  ZZM  23 5
M  ZZI  23 1
M  ZZM  24 5
M  ZZI  24 1
M  ZZM  25 5
M  ZZI  25 1
M  ZZM  26 5
M  ZZI  26 1
M  ZZM  27 5
M  ZZI  27 1
M  ZZM  28 5
M  ZZI  28 1
M  ZZM  29 5
M  ZZI  29 1
M  ZZM  30 5
M  ZZI  30 1
M  END
> <IX>
1

> <NAME>
Cereblon_3MXF_17.pdb

> <Score>
-15.55635

> <Natom>
30

> <Nflex>
1

> <Hbond>
-4.218969

> <Hphob>
-3.694632

> <VwInt>
-19.373915

> <Dsolv>
13.640972

> <SolEl>
6.333684

> <Eintl>
3.260001

> <RecConf>
ND

> <projPath>
Cereblon_maps/

> <NAME_>
Cereblon_3MXF_17.pdb

$$$$
