Cereblon_3LQ5_19.pdb
  MOLSOFT 04032206213D

 29 31  0  0  1  0  0  0  0  0999 V2000
   79.0036   42.4922   42.6693 C   0  0  0  0  0  0  0  0  0  0  0  0
   78.1840   42.1963   41.5941 C   0  0  0  0  0  0  0  0  0  0  0  0
   77.2673   41.0774   41.4090 C   0  0  0  0  0  0  0  0  0  0  0  0
   77.0873   40.2172   42.2572 O   0  0  0  0  0  0  0  0  0  0  0  0
   76.7268   41.2184   40.1440 N   0  0  0  0  0  0  0  0  0  0  0  0
   77.2219   42.3458   39.5207 C   0  0  0  0  0  0  0  0  0  0  0  0
   76.9862   42.7635   38.3943 O   0  0  0  0  0  0  0  0  0  0  0  0
   78.1566   42.9584   40.4650 C   0  0  0  0  0  0  0  0  0  0  0  0
   78.9555   44.0745   40.3223 C   0  0  0  0  0  0  0  0  0  0  0  0
   79.7989   44.3844   41.3833 C   0  0  0  0  0  0  0  0  0  0  0  0
   79.8230   43.6072   42.5419 C   0  0  0  0  0  0  0  0  0  0  0  0
   75.7180   40.3634   39.5121 C   0  0  2  0  0  0  0  0  0  0  0  0
   74.3386   40.9327   39.8033 C   0  0  0  0  0  0  0  0  0  0  0  0
   74.1511   42.1185   40.0193 O   0  0  0  0  0  0  0  0  0  0  0  0
   73.2877   40.0515   39.7254 N   0  0  0  0  0  0  0  0  0  0  0  0
   73.3256   38.7058   39.4533 C   0  0  0  0  0  0  0  0  0  0  0  0
   72.3098   38.0325   39.3956 O   0  0  0  0  0  0  0  0  0  0  0  0
   74.6903   38.1231   39.1779 C   0  0  0  0  0  0  0  0  0  0  0  0
   75.7725   38.8930   39.9143 C   0  0  0  0  0  0  0  0  0  0  0  0
   79.0162   41.8770   43.5647 H   0  0  0  0  0  0  0  0  0  0  0  0
   78.9251   44.6754   39.4215 H   0  0  0  0  0  0  0  0  0  0  0  0
   80.4476   45.2497   41.3124 H   0  0  0  0  0  0  0  0  0  0  0  0
   80.4910   43.8762   43.3554 H   0  0  0  0  0  0  0  0  0  0  0  0
   75.8554   40.4512   38.4324 H   0  0  0  0  0  0  0  0  0  0  0  0
   72.3694   40.4456   39.8880 H   0  0  0  0  0  0  0  0  0  0  0  0
   74.6962   37.0782   39.5037 H   0  0  0  0  0  0  0  0  0  0  0  0
   74.8533   38.1430   38.0961 H   0  0  0  0  0  0  0  0  0  0  0  0
   76.7578   38.4711   39.6911 H   0  0  0  0  0  0  0  0  0  0  0  0
   75.6090   38.7744   40.9890 H   0  0  0  0  0  0  0  0  0  0  0  0
  1 20  1  0  0  0  0
  1  2  1  0  0  0  0
  1 11  2  0  0  0  0
  2  3  1  0  0  0  0
  2  8  2  0  0  0  0
  3  4  2  0  0  0  0
  3  5  1  0  0  0  0
  5  6  1  0  0  0  0
 12  5  1  0  0  0  0
  6  7  2  0  0  0  0
  6  8  1  0  0  0  0
  8  9  1  0  0  0  0
  9 21  1  0  0  0  0
  9 10  2  0  0  0  0
 10 22  1  0  0  0  0
 10 11  1  0  0  0  0
 11 23  1  0  0  0  0
 12 24  1  0  0  0  0
 12 13  1  0  0  0  0
 12 19  1  0  0  0  0
 13 14  2  0  0  0  0
 13 15  1  0  0  0  0
 15 25  1  0  0  0  0
 15 16  1  0  0  0  0
 16 17  2  0  0  0  0
 16 18  1  0  0  0  0
 18 26  1  0  0  0  0
 18 27  1  0  0  0  0
 18 19  1  0  0  0  0
 19 28  1  0  0  0  0
 19 29  1  0  0  0  0
M  ZZC   1 c1
M  ZZC   2 c2
M  ZZC   3 c3
M  ZZC   4 o1
M  ZZC   5 n1
M  ZZC   6 c4
M  ZZC   7 o2
M  ZZC   8 c5
M  ZZC   9 c6
M  ZZC  10 c7
M  ZZC  11 c8
M  ZZC  12 c9
M  ZZC  13 c10
M  ZZC  14 o3
M  ZZC  15 n2
M  ZZC  16 c11
M  ZZC  17 o4
M  ZZC  18 c12
M  ZZC  19 c13
M  ZZC  20 h11
M  ZZC  21 h61
M  ZZC  22 h71
M  ZZC  23 h81
M  ZZC  24 h91
M  ZZC  25 h21
M  ZZC  26 h121
M  ZZC  27 h122
M  ZZC  28 h131
M  ZZC  29 h132
M  ZZM   1 37
M  ZZI   1 125
M  ZZM   2 37
M  ZZI   2 124
M  ZZM   3 3
M  ZZI   3 121
M  ZZM   4 7
M  ZZI   4 81
M  ZZM   5 10
M  ZZI   5 192
M  ZZM   6 3
M  ZZI   6 121
M  ZZM   7 7
M  ZZI   7 81
M  ZZM   8 37
M  ZZI   8 124
M  ZZM   9 37
M  ZZI   9 125
M  ZZM  10 37
M  ZZI  10 125
M  ZZM  11 37
M  ZZI  11 125
M  ZZM  12 1
M  ZZI  12 113
M  ZZM  13 3
M  ZZI  13 121
M  ZZM  14 7
M  ZZI  14 81
M  ZZM  15 10
M  ZZI  15 191
M  ZZM  16 3
M  ZZI  16 121
M  ZZM  17 7
M  ZZI  17 81
M  ZZM  18 1
M  ZZI  18 112
M  ZZM  19 1
M  ZZI  19 112
M  ZZM  20 5
M  ZZI  20 1
M  ZZM  21 5
M  ZZI  21 1
M  ZZM  22 5
M  ZZI  22 1
M  ZZM  23 5
M  ZZI  23 1
M  ZZM  24 5
M  ZZI  24 1
M  ZZM  25 28
M  ZZI  25 11
M  ZZM  26 5
M  ZZI  26 1
M  ZZM  27 5
M  ZZI  27 1
M  ZZM  28 5
M  ZZI  28 1
M  ZZM  29 5
M  ZZI  29 1
M  END
> <IX>
1

> <NAME>
Cereblon_3LQ5_19.pdb

> <Score>
-19.43415

> <Natom>
29

> <Nflex>
1

> <Hbond>
-3.364771

> <Hphob>
-3.532469

> <VwInt>
-22.698813

> <Dsolv>
11.949791

> <SolEl>
5.608852

> <Eintl>
1.466838

> <RecConf>
ND

> <projPath>
Cereblon_maps/

> <NAME_>
Cereblon_3LQ5_19.pdb

$$$$
