Cereblon_5L2I_20.pdb
  MOLSOFT 04032206253D

 29 31  0  0  1  0  0  0  0  0999 V2000
   77.5480   40.8178   42.1405 C   0  0  0  0  0  0  0  0  0  0  0  0
   76.9446   40.9719   40.9054 C   0  0  0  0  0  0  0  0  0  0  0  0
   75.8963   40.1714   40.2760 C   0  0  0  0  0  0  0  0  0  0  0  0
   75.4715   39.1200   40.7309 O   0  0  0  0  0  0  0  0  0  0  0  0
   75.5159   40.8593   39.1423 N   0  0  0  0  0  0  0  0  0  0  0  0
   76.3662   41.9221   38.9100 C   0  0  0  0  0  0  0  0  0  0  0  0
   76.4330   42.6527   37.9315 O   0  0  0  0  0  0  0  0  0  0  0  0
   77.2212   42.0285   40.0893 C   0  0  0  0  0  0  0  0  0  0  0  0
   78.1364   43.0070   40.4368 C   0  0  0  0  0  0  0  0  0  0  0  0
   78.7607   42.8663   41.6720 C   0  0  0  0  0  0  0  0  0  0  0  0
   78.4615   41.7950   42.5166 C   0  0  0  0  0  0  0  0  0  0  0  0
   74.2511   40.6931   38.4134 C   0  0  2  0  0  0  0  0  0  0  0  0
   73.2248   41.4804   39.2072 C   0  0  0  0  0  0  0  0  0  0  0  0
   73.5487   42.3373   40.0135 O   0  0  0  0  0  0  0  0  0  0  0  0
   71.9072   41.2177   38.9220 N   0  0  0  0  0  0  0  0  0  0  0  0
   71.3979   40.2269   38.1176 C   0  0  0  0  0  0  0  0  0  0  0  0
   70.1959   40.1197   37.9248 O   0  0  0  0  0  0  0  0  0  0  0  0
   72.4184   39.3213   37.4584 C   0  0  0  0  0  0  0  0  0  0  0  0
   73.7231   39.2716   38.2443 C   0  0  0  0  0  0  0  0  0  0  0  0
   77.3045   39.9888   42.7982 H   0  0  0  0  0  0  0  0  0  0  0  0
   78.3462   43.8511   39.7872 H   0  0  0  0  0  0  0  0  0  0  0  0
   79.4779   43.6153   41.9936 H   0  0  0  0  0  0  0  0  0  0  0  0
   78.9488   41.7244   43.4848 H   0  0  0  0  0  0  0  0  0  0  0  0
   74.3428   41.1947   37.4427 H   0  0  0  0  0  0  0  0  0  0  0  0
   71.2339   41.8259   39.3713 H   0  0  0  0  0  0  0  0  0  0  0  0
   71.9928   38.3155   37.3854 H   0  0  0  0  0  0  0  0  0  0  0  0
   72.5928   39.6895   36.4415 H   0  0  0  0  0  0  0  0  0  0  0  0
   74.4514   38.6406   37.7274 H   0  0  0  0  0  0  0  0  0  0  0  0
   73.5313   38.8063   39.2171 H   0  0  0  0  0  0  0  0  0  0  0  0
  1 20  1  0  0  0  0
  1  2  1  0  0  0  0
  1 11  2  0  0  0  0
  2  3  1  0  0  0  0
  2  8  2  0  0  0  0
  3  4  2  0  0  0  0
  3  5  1  0  0  0  0
  5  6  1  0  0  0  0
 12  5  1  0  0  0  0
  6  7  2  0  0  0  0
  6  8  1  0  0  0  0
  8  9  1  0  0  0  0
  9 21  1  0  0  0  0
  9 10  2  0  0  0  0
 10 22  1  0  0  0  0
 10 11  1  0  0  0  0
 11 23  1  0  0  0  0
 12 24  1  0  0  0  0
 12 13  1  0  0  0  0
 12 19  1  0  0  0  0
 13 14  2  0  0  0  0
 13 15  1  0  0  0  0
 15 25  1  0  0  0  0
 15 16  1  0  0  0  0
 16 17  2  0  0  0  0
 16 18  1  0  0  0  0
 18 26  1  0  0  0  0
 18 27  1  0  0  0  0
 18 19  1  0  0  0  0
 19 28  1  0  0  0  0
 19 29  1  0  0  0  0
M  ZZC   1 c1
M  ZZC   2 c2
M  ZZC   3 c3
M  ZZC   4 o1
M  ZZC   5 n1
M  ZZC   6 c4
M  ZZC   7 o2
M  ZZC   8 c5
M  ZZC   9 c6
M  ZZC  10 c7
M  ZZC  11 c8
M  ZZC  12 c9
M  ZZC  13 c10
M  ZZC  14 o3
M  ZZC  15 n2
M  ZZC  16 c11
M  ZZC  17 o4
M  ZZC  18 c12
M  ZZC  19 c13
M  ZZC  20 h11
M  ZZC  21 h61
M  ZZC  22 h71
M  ZZC  23 h81
M  ZZC  24 h91
M  ZZC  25 h21
M  ZZC  26 h121
M  ZZC  27 h122
M  ZZC  28 h131
M  ZZC  29 h132
M  ZZM   1 37
M  ZZI   1 125
M  ZZM   2 37
M  ZZI   2 124
M  ZZM   3 3
M  ZZI   3 121
M  ZZM   4 7
M  ZZI   4 81
M  ZZM   5 10
M  ZZI   5 192
M  ZZM   6 3
M  ZZI   6 121
M  ZZM   7 7
M  ZZI   7 81
M  ZZM   8 37
M  ZZI   8 124
M  ZZM   9 37
M  ZZI   9 125
M  ZZM  10 37
M  ZZI  10 125
M  ZZM  11 37
M  ZZI  11 125
M  ZZM  12 1
M  ZZI  12 113
M  ZZM  13 3
M  ZZI  13 121
M  ZZM  14 7
M  ZZI  14 81
M  ZZM  15 10
M  ZZI  15 191
M  ZZM  16 3
M  ZZI  16 121
M  ZZM  17 7
M  ZZI  17 81
M  ZZM  18 1
M  ZZI  18 112
M  ZZM  19 1
M  ZZI  19 112
M  ZZM  20 5
M  ZZI  20 1
M  ZZM  21 5
M  ZZI  21 1
M  ZZM  22 5
M  ZZI  22 1
M  ZZM  23 5
M  ZZI  23 1
M  ZZM  24 5
M  ZZI  24 1
M  ZZM  25 28
M  ZZI  25 11
M  ZZM  26 5
M  ZZI  26 1
M  ZZM  27 5
M  ZZI  27 1
M  ZZM  28 5
M  ZZI  28 1
M  ZZM  29 5
M  ZZI  29 1
M  END
> <IX>
1

> <NAME>
Cereblon_5L2I_20.pdb

> <Score>
-16.764755

> <Natom>
29

> <Nflex>
1

> <Hbond>
-4.298647

> <Hphob>
-3.479076

> <VwInt>
-21.344773

> <Dsolv>
15.013131

> <SolEl>
4.119671

> <Eintl>
5.346241

> <RecConf>
ND

> <projPath>
Cereblon_maps/

> <NAME_>
Cereblon_5L2I_20.pdb

$$$$
