Cereblon_3MXF_27.pdb
  MOLSOFT 04032206223D

 31 33  0  0  1  0  0  0  0  0999 V2000
   77.3622   41.8933   41.5763 N   0  0  0  0  0  0  0  0  0  0  0  0
   77.0531   40.5926   41.1491 C   0  0  0  0  0  0  0  0  0  0  0  0
   76.0510   40.3116   40.2269 C   0  0  0  0  0  0  0  0  0  0  0  0
   75.1427   41.2030   39.4970 C   0  0  0  0  0  0  0  0  0  0  0  0
   75.0855   42.4086   39.6851 O   0  0  0  0  0  0  0  0  0  0  0  0
   74.3905   40.4033   38.6575 N   0  0  0  0  0  0  0  0  0  0  0  0
   74.6920   39.0733   38.8574 C   0  0  0  0  0  0  0  0  0  0  0  0
   74.2024   38.0801   38.3393 O   0  0  0  0  0  0  0  0  0  0  0  0
   75.7596   39.0334   39.8532 C   0  0  0  0  0  0  0  0  0  0  0  0
   76.4106   37.9356   40.3830 C   0  0  0  0  0  0  0  0  0  0  0  0
   77.3815   38.1880   41.3412 C   0  0  0  0  0  0  0  0  0  0  0  0
   77.6836   39.4934   41.7245 C   0  0  0  0  0  0  0  0  0  0  0  0
   73.3337   40.8450   37.7348 C   0  0  1  0  0  0  0  0  0  0  0  0
   72.0259   41.0625   38.4864 C   0  0  0  0  0  0  0  0  0  0  0  0
   71.7638   40.5211   39.5505 O   0  0  0  0  0  0  0  0  0  0  0  0
   71.1021   41.8633   37.8540 N   0  0  0  0  0  0  0  0  0  0  0  0
   71.2567   42.6263   36.7214 C   0  0  0  0  0  0  0  0  0  0  0  0
   70.3950   43.4061   36.3428 O   0  0  0  0  0  0  0  0  0  0  0  0
   72.5520   42.4255   35.9720 C   0  0  0  0  0  0  0  0  0  0  0  0
   73.6861   42.0915   36.9268 C   0  0  0  0  0  0  0  0  0  0  0  0
   78.1897   42.0454   42.1488 H   0  0  0  0  0  0  0  0  0  0  0  0
   76.9941   42.6902   41.0563 H   0  0  0  0  0  0  0  0  0  0  0  0
   76.1664   36.9231   40.0752 H   0  0  0  0  0  0  0  0  0  0  0  0
   77.9098   37.3583   41.8017 H   0  0  0  0  0  0  0  0  0  0  0  0
   78.4354   39.6527   42.4912 H   0  0  0  0  0  0  0  0  0  0  0  0
   73.1448   40.0185   37.0399 H   0  0  0  0  0  0  0  0  0  0  0  0
   70.2349   42.0007   38.3513 H   0  0  0  0  0  0  0  0  0  0  0  0
   72.4078   41.6285   35.2346 H   0  0  0  0  0  0  0  0  0  0  0  0
   72.7836   43.3494   35.4339 H   0  0  0  0  0  0  0  0  0  0  0  0
   74.6116   41.9357   36.3665 H   0  0  0  0  0  0  0  0  0  0  0  0
   73.8603   42.9473   37.5843 H   0  0  0  0  0  0  0  0  0  0  0  0
  1  2  1  0  0  0  0
  1 21  1  0  0  0  0
  1 22  1  0  0  0  0
  2  3  1  0  0  0  0
  2 12  2  0  0  0  0
  3  9  2  0  0  0  0
  3  4  1  0  0  0  0
  4  5  2  0  0  0  0
  4  6  1  0  0  0  0
  6  7  1  0  0  0  0
 13  6  1  0  0  0  0
  7  8  2  0  0  0  0
  7  9  1  0  0  0  0
  9 10  1  0  0  0  0
 10 23  1  0  0  0  0
 10 11  2  0  0  0  0
 11 12  1  0  0  0  0
 11 24  1  0  0  0  0
 12 25  1  0  0  0  0
 13 26  1  0  0  0  0
 13 14  1  0  0  0  0
 13 20  1  0  0  0  0
 14 15  2  0  0  0  0
 14 16  1  0  0  0  0
 16 27  1  0  0  0  0
 16 17  1  0  0  0  0
 17 18  2  0  0  0  0
 17 19  1  0  0  0  0
 19 28  1  0  0  0  0
 19 29  1  0  0  0  0
 19 20  1  0  0  0  0
 20 30  1  0  0  0  0
 20 31  1  0  0  0  0
M  ZZC   1 n1
M  ZZC   2 c1
M  ZZC   3 c2
M  ZZC   4 c3
M  ZZC   5 o1
M  ZZC   6 n2
M  ZZC   7 c4
M  ZZC   8 o2
M  ZZC   9 c5
M  ZZC  10 c6
M  ZZC  11 c7
M  ZZC  12 c8
M  ZZC  13 c9
M  ZZC  14 c10
M  ZZC  15 o3
M  ZZC  16 n3
M  ZZC  17 c11
M  ZZC  18 o4
M  ZZC  19 c12
M  ZZC  20 c13
M  ZZC  21 h11
M  ZZC  22 h12
M  ZZC  23 h61
M  ZZC  24 h71
M  ZZC  25 h81
M  ZZC  26 h91
M  ZZC  27 h31
M  ZZC  28 h121
M  ZZC  29 h122
M  ZZC  30 h131
M  ZZC  31 h132
M  ZZM   1 40
M  ZZI   1 224
M  ZZM   2 37
M  ZZI   2 124
M  ZZM   3 37
M  ZZI   3 124
M  ZZM   4 3
M  ZZI   4 121
M  ZZM   5 7
M  ZZI   5 81
M  ZZM   6 10
M  ZZI   6 192
M  ZZM   7 3
M  ZZI   7 121
M  ZZM   8 7
M  ZZI   8 81
M  ZZM   9 37
M  ZZI   9 124
M  ZZM  10 37
M  ZZI  10 125
M  ZZM  11 37
M  ZZI  11 125
M  ZZM  12 37
M  ZZI  12 125
M  ZZM  13 1
M  ZZI  13 113
M  ZZM  14 3
M  ZZI  14 121
M  ZZM  15 7
M  ZZI  15 81
M  ZZM  16 10
M  ZZI  16 191
M  ZZM  17 3
M  ZZI  17 121
M  ZZM  18 7
M  ZZI  18 81
M  ZZM  19 1
M  ZZI  19 112
M  ZZM  20 1
M  ZZI  20 112
M  ZZM  21 28
M  ZZI  21 11
M  ZZM  22 28
M  ZZI  22 11
M  ZZM  23 5
M  ZZI  23 1
M  ZZM  24 5
M  ZZI  24 1
M  ZZM  25 5
M  ZZI  25 1
M  ZZM  26 5
M  ZZI  26 1
M  ZZM  27 28
M  ZZI  27 11
M  ZZM  28 5
M  ZZI  28 1
M  ZZM  29 5
M  ZZI  29 1
M  ZZM  30 5
M  ZZI  30 1
M  ZZM  31 5
M  ZZI  31 1
M  END
> <IX>
1

> <NAME>
Cereblon_3MXF_27.pdb

> <Score>
-15.528594

> <Natom>
31

> <Nflex>
1

> <Hbond>
-3.548

> <Hphob>
-3.610032

> <VwInt>
-23.915015

> <Dsolv>
16.512732

> <SolEl>
9.537689

> <Eintl>
0.836932

> <RecConf>
ND

> <projPath>
Cereblon_maps/

> <NAME_>
Cereblon_3MXF_27.pdb

$$$$
