Cereblon_1HWK_9.pdb
  MOLSOFT 04032206193D

 31 33  0  0  1  0  0  0  0  0999 V2000
   76.7294   41.9896   40.4767 N   0  0  0  0  0  0  0  0  0  0  0  0
   76.3201   40.6803   40.1807 C   0  0  0  0  0  0  0  0  0  0  0  0
   75.2222   40.4136   39.3816 C   0  0  0  0  0  0  0  0  0  0  0  0
   74.3424   41.3459   38.6874 C   0  0  0  0  0  0  0  0  0  0  0  0
   74.4000   42.5553   38.8524 O   0  0  0  0  0  0  0  0  0  0  0  0
   73.4801   40.5806   37.9249 N   0  0  0  0  0  0  0  0  0  0  0  0
   73.6904   39.2364   38.1620 C   0  0  0  0  0  0  0  0  0  0  0  0
   73.0983   38.2656   37.7132 O   0  0  0  0  0  0  0  0  0  0  0  0
   74.8100   39.1492   39.0979 C   0  0  0  0  0  0  0  0  0  0  0  0
   75.4256   38.0393   39.6451 C   0  0  0  0  0  0  0  0  0  0  0  0
   76.4932   38.2768   40.5025 C   0  0  0  0  0  0  0  0  0  0  0  0
   76.9254   39.5760   40.7721 C   0  0  0  0  0  0  0  0  0  0  0  0
   72.3963   41.0770   37.0647 C   0  0  1  0  0  0  0  0  0  0  0  0
   71.1510   41.3399   37.9055 C   0  0  0  0  0  0  0  0  0  0  0  0
   70.8896   40.7225   38.9276 O   0  0  0  0  0  0  0  0  0  0  0  0
   70.2672   42.2638   37.3986 N   0  0  0  0  0  0  0  0  0  0  0  0
   70.3859   43.0465   36.2817 C   0  0  0  0  0  0  0  0  0  0  0  0
   69.5657   43.9150   36.0292 O   0  0  0  0  0  0  0  0  0  0  0  0
   71.5711   42.7448   35.4005 C   0  0  0  0  0  0  0  0  0  0  0  0
   72.7621   42.3116   36.2400 C   0  0  0  0  0  0  0  0  0  0  0  0
   77.6676   42.1206   40.8497 H   0  0  0  0  0  0  0  0  0  0  0  0
   76.3418   42.7481   39.9153 H   0  0  0  0  0  0  0  0  0  0  0  0
   75.0904   37.0312   39.4195 H   0  0  0  0  0  0  0  0  0  0  0  0
   77.0023   37.4381   40.9677 H   0  0  0  0  0  0  0  0  0  0  0  0
   77.7600   39.7248   41.4501 H   0  0  0  0  0  0  0  0  0  0  0  0
   72.1265   40.2643   36.3802 H   0  0  0  0  0  0  0  0  0  0  0  0
   69.4401   42.4350   37.9514 H   0  0  0  0  0  0  0  0  0  0  0  0
   71.2843   41.9665   34.6853 H   0  0  0  0  0  0  0  0  0  0  0  0
   71.8196   43.6474   34.8374 H   0  0  0  0  0  0  0  0  0  0  0  0
   73.6195   42.0946   35.5951 H   0  0  0  0  0  0  0  0  0  0  0  0
   73.0547   43.1462   36.8843 H   0  0  0  0  0  0  0  0  0  0  0  0
  1  2  1  0  0  0  0
  1 21  1  0  0  0  0
  1 22  1  0  0  0  0
  2  3  1  0  0  0  0
  2 12  2  0  0  0  0
  3  9  2  0  0  0  0
  3  4  1  0  0  0  0
  4  5  2  0  0  0  0
  4  6  1  0  0  0  0
  6  7  1  0  0  0  0
 13  6  1  0  0  0  0
  7  8  2  0  0  0  0
  7  9  1  0  0  0  0
  9 10  1  0  0  0  0
 10 23  1  0  0  0  0
 10 11  2  0  0  0  0
 11 12  1  0  0  0  0
 11 24  1  0  0  0  0
 12 25  1  0  0  0  0
 13 26  1  0  0  0  0
 13 14  1  0  0  0  0
 13 20  1  0  0  0  0
 14 15  2  0  0  0  0
 14 16  1  0  0  0  0
 16 27  1  0  0  0  0
 16 17  1  0  0  0  0
 17 18  2  0  0  0  0
 17 19  1  0  0  0  0
 19 28  1  0  0  0  0
 19 29  1  0  0  0  0
 19 20  1  0  0  0  0
 20 30  1  0  0  0  0
 20 31  1  0  0  0  0
M  ZZC   1 n1
M  ZZC   2 c1
M  ZZC   3 c2
M  ZZC   4 c3
M  ZZC   5 o1
M  ZZC   6 n2
M  ZZC   7 c4
M  ZZC   8 o2
M  ZZC   9 c5
M  ZZC  10 c6
M  ZZC  11 c7
M  ZZC  12 c8
M  ZZC  13 c9
M  ZZC  14 c10
M  ZZC  15 o3
M  ZZC  16 n3
M  ZZC  17 c11
M  ZZC  18 o4
M  ZZC  19 c12
M  ZZC  20 c13
M  ZZC  21 h11
M  ZZC  22 h12
M  ZZC  23 h61
M  ZZC  24 h71
M  ZZC  25 h81
M  ZZC  26 h91
M  ZZC  27 h31
M  ZZC  28 h121
M  ZZC  29 h122
M  ZZC  30 h131
M  ZZC  31 h132
M  ZZM   1 40
M  ZZI   1 224
M  ZZM   2 37
M  ZZI   2 124
M  ZZM   3 37
M  ZZI   3 124
M  ZZM   4 3
M  ZZI   4 121
M  ZZM   5 7
M  ZZI   5 81
M  ZZM   6 10
M  ZZI   6 192
M  ZZM   7 3
M  ZZI   7 121
M  ZZM   8 7
M  ZZI   8 81
M  ZZM   9 37
M  ZZI   9 124
M  ZZM  10 37
M  ZZI  10 125
M  ZZM  11 37
M  ZZI  11 125
M  ZZM  12 37
M  ZZI  12 125
M  ZZM  13 1
M  ZZI  13 113
M  ZZM  14 3
M  ZZI  14 121
M  ZZM  15 7
M  ZZI  15 81
M  ZZM  16 10
M  ZZI  16 191
M  ZZM  17 3
M  ZZI  17 121
M  ZZM  18 7
M  ZZI  18 81
M  ZZM  19 1
M  ZZI  19 112
M  ZZM  20 1
M  ZZI  20 112
M  ZZM  21 28
M  ZZI  21 11
M  ZZM  22 28
M  ZZI  22 11
M  ZZM  23 5
M  ZZI  23 1
M  ZZM  24 5
M  ZZI  24 1
M  ZZM  25 5
M  ZZI  25 1
M  ZZM  26 5
M  ZZI  26 1
M  ZZM  27 28
M  ZZI  27 11
M  ZZM  28 5
M  ZZI  28 1
M  ZZM  29 5
M  ZZI  29 1
M  ZZM  30 5
M  ZZI  30 1
M  ZZM  31 5
M  ZZI  31 1
M  END
> <IX>
1

> <NAME>
Cereblon_1HWK_9.pdb

> <Score>
-19.508904

> <Natom>
31

> <Nflex>
1

> <Hbond>
-4.825263

> <Hphob>
-3.55243

> <VwInt>
-25.278168

> <Dsolv>
15.923953

> <SolEl>
10.583191

> <Eintl>
1.382396

> <RecConf>
ND

> <projPath>
Cereblon_maps/

> <NAME_>
Cereblon_1HWK_9.pdb

$$$$
