Cereblon_3UE4_7.pdb
  MOLSOFT 04032206223D

 29 31  0  0  1  0  0  0  0  0999 V2000
   79.0040   42.4908   42.6719 C   0  0  0  0  0  0  0  0  0  0  0  0
   78.1858   42.1955   41.5961 C   0  0  0  0  0  0  0  0  0  0  0  0
   77.2676   41.0779   41.4113 C   0  0  0  0  0  0  0  0  0  0  0  0
   77.0867   40.2179   42.2597 O   0  0  0  0  0  0  0  0  0  0  0  0
   76.7269   41.2200   40.1466 N   0  0  0  0  0  0  0  0  0  0  0  0
   77.2228   42.3467   39.5229 C   0  0  0  0  0  0  0  0  0  0  0  0
   76.9868   42.7639   38.3965 O   0  0  0  0  0  0  0  0  0  0  0  0
   78.1586   42.9582   40.4672 C   0  0  0  0  0  0  0  0  0  0  0  0
   78.9578   44.0748   40.3245 C   0  0  0  0  0  0  0  0  0  0  0  0
   79.7994   44.3844   41.3868 C   0  0  0  0  0  0  0  0  0  0  0  0
   79.8228   43.6067   42.5451 C   0  0  0  0  0  0  0  0  0  0  0  0
   75.7186   40.3650   39.5138 C   0  0  2  0  0  0  0  0  0  0  0  0
   74.3391   40.9333   39.8027 C   0  0  0  0  0  0  0  0  0  0  0  0
   74.1511   42.1193   40.0175 O   0  0  0  0  0  0  0  0  0  0  0  0
   73.2892   40.0509   39.7263 N   0  0  0  0  0  0  0  0  0  0  0  0
   73.3282   38.7049   39.4556 C   0  0  0  0  0  0  0  0  0  0  0  0
   72.3131   38.0304   39.3995 O   0  0  0  0  0  0  0  0  0  0  0  0
   74.6923   38.1244   39.1782 C   0  0  0  0  0  0  0  0  0  0  0  0
   75.7738   38.8945   39.9153 C   0  0  0  0  0  0  0  0  0  0  0  0
   79.0148   41.8763   43.5677 H   0  0  0  0  0  0  0  0  0  0  0  0
   78.9262   44.6759   39.4237 H   0  0  0  0  0  0  0  0  0  0  0  0
   80.4467   45.2512   41.3180 H   0  0  0  0  0  0  0  0  0  0  0  0
   80.4893   43.8764   43.3596 H   0  0  0  0  0  0  0  0  0  0  0  0
   75.8563   40.4529   38.4340 H   0  0  0  0  0  0  0  0  0  0  0  0
   72.3708   40.4444   39.8895 H   0  0  0  0  0  0  0  0  0  0  0  0
   74.7004   37.0787   39.5019 H   0  0  0  0  0  0  0  0  0  0  0  0
   74.8534   38.1470   38.0960 H   0  0  0  0  0  0  0  0  0  0  0  0
   75.6106   38.7746   40.9901 H   0  0  0  0  0  0  0  0  0  0  0  0
   76.7597   38.4734   39.6931 H   0  0  0  0  0  0  0  0  0  0  0  0
  1 20  1  0  0  0  0
  1  2  1  0  0  0  0
  1 11  2  0  0  0  0
  2  3  1  0  0  0  0
  2  8  2  0  0  0  0
  3  4  2  0  0  0  0
  3  5  1  0  0  0  0
  5  6  1  0  0  0  0
 12  5  1  0  0  0  0
  6  7  2  0  0  0  0
  6  8  1  0  0  0  0
  8  9  1  0  0  0  0
  9 21  1  0  0  0  0
  9 10  2  0  0  0  0
 10 22  1  0  0  0  0
 10 11  1  0  0  0  0
 11 23  1  0  0  0  0
 12 24  1  0  0  0  0
 12 13  1  0  0  0  0
 12 19  1  0  0  0  0
 13 14  2  0  0  0  0
 13 15  1  0  0  0  0
 15 25  1  0  0  0  0
 15 16  1  0  0  0  0
 16 17  2  0  0  0  0
 16 18  1  0  0  0  0
 18 26  1  0  0  0  0
 18 27  1  0  0  0  0
 18 19  1  0  0  0  0
 19 28  1  0  0  0  0
 19 29  1  0  0  0  0
M  ZZC   1 c1
M  ZZC   2 c2
M  ZZC   3 c3
M  ZZC   4 o1
M  ZZC   5 n1
M  ZZC   6 c4
M  ZZC   7 o2
M  ZZC   8 c5
M  ZZC   9 c6
M  ZZC  10 c7
M  ZZC  11 c8
M  ZZC  12 c9
M  ZZC  13 c10
M  ZZC  14 o3
M  ZZC  15 n2
M  ZZC  16 c11
M  ZZC  17 o4
M  ZZC  18 c12
M  ZZC  19 c13
M  ZZC  20 h11
M  ZZC  21 h61
M  ZZC  22 h71
M  ZZC  23 h81
M  ZZC  24 h91
M  ZZC  25 h21
M  ZZC  26 h121
M  ZZC  27 h122
M  ZZC  28 h131
M  ZZC  29 h132
M  ZZM   1 37
M  ZZI   1 125
M  ZZM   2 37
M  ZZI   2 124
M  ZZM   3 3
M  ZZI   3 121
M  ZZM   4 7
M  ZZI   4 81
M  ZZM   5 10
M  ZZI   5 192
M  ZZM   6 3
M  ZZI   6 121
M  ZZM   7 7
M  ZZI   7 81
M  ZZM   8 37
M  ZZI   8 124
M  ZZM   9 37
M  ZZI   9 125
M  ZZM  10 37
M  ZZI  10 125
M  ZZM  11 37
M  ZZI  11 125
M  ZZM  12 1
M  ZZI  12 113
M  ZZM  13 3
M  ZZI  13 121
M  ZZM  14 7
M  ZZI  14 81
M  ZZM  15 10
M  ZZI  15 191
M  ZZM  16 3
M  ZZI  16 121
M  ZZM  17 7
M  ZZI  17 81
M  ZZM  18 1
M  ZZI  18 112
M  ZZM  19 1
M  ZZI  19 112
M  ZZM  20 5
M  ZZI  20 1
M  ZZM  21 5
M  ZZI  21 1
M  ZZM  22 5
M  ZZI  22 1
M  ZZM  23 5
M  ZZI  23 1
M  ZZM  24 5
M  ZZI  24 1
M  ZZM  25 28
M  ZZI  25 11
M  ZZM  26 5
M  ZZI  26 1
M  ZZM  27 5
M  ZZI  27 1
M  ZZM  28 5
M  ZZI  28 1
M  ZZM  29 5
M  ZZI  29 1
M  END
> <IX>
1

> <NAME>
Cereblon_3UE4_7.pdb

> <Score>
-19.413255

> <Natom>
29

> <Nflex>
1

> <Hbond>
-3.36636

> <Hphob>
-3.590843

> <VwInt>
-22.701053

> <Dsolv>
12.031632

> <SolEl>
5.605361

> <Eintl>
1.478817

> <RecConf>
ND

> <projPath>
Cereblon_maps/

> <NAME_>
Cereblon_3UE4_7.pdb

$$$$
