Cereblon_6NUQ_18.pdb
  MOLSOFT 04032206283D

 30 32  0  0  1  0  0  0  0  0999 V2000
   76.4013   38.7976   40.5252 C   0  0  0  0  0  0  0  0  0  0  0  0
   75.3876   38.4647   39.6375 C   0  0  0  0  0  0  0  0  0  0  0  0
   74.7672   39.5064   38.9732 C   0  0  0  0  0  0  0  0  0  0  0  0
   73.6739   39.4498   37.9961 C   0  0  0  0  0  0  0  0  0  0  0  0
   73.1425   38.4161   37.6171 O   0  0  0  0  0  0  0  0  0  0  0  0
   73.3942   40.7562   37.6413 N   0  0  0  0  0  0  0  0  0  0  0  0
   72.2540   41.1600   36.8059 C   0  0  1  0  0  0  0  0  0  0  0  0
   71.0185   41.3348   37.6935 C   0  0  0  0  0  0  0  0  0  0  0  0
   70.7853   40.6439   38.6743 O   0  0  0  0  0  0  0  0  0  0  0  0
   70.1086   42.2809   37.2890 N   0  0  0  0  0  0  0  0  0  0  0  0
   70.1437   43.0935   36.1909 C   0  0  0  0  0  0  0  0  0  0  0  0
   69.2926   43.9500   36.0170 O   0  0  0  0  0  0  0  0  0  0  0  0
   71.2751   42.8413   35.2329 C   0  0  0  0  0  0  0  0  0  0  0  0
   72.5214   42.4282   35.9944 C   0  0  0  0  0  0  0  0  0  0  0  0
   74.2505   41.7011   38.3342 C   0  0  0  0  0  0  0  0  0  0  0  0
   75.1064   40.8171   39.1638 C   0  0  0  0  0  0  0  0  0  0  0  0
   76.1200   41.1560   40.0440 C   0  0  0  0  0  0  0  0  0  0  0  0
   76.7611   40.1283   40.7248 C   0  0  0  0  0  0  0  0  0  0  0  0
   76.9183   38.0109   41.0652 H   0  0  0  0  0  0  0  0  0  0  0  0
   75.0951   37.4323   39.4727 H   0  0  0  0  0  0  0  0  0  0  0  0
   72.0257   40.3284   36.1293 H   0  0  0  0  0  0  0  0  0  0  0  0
   69.3055   42.4084   37.8878 H   0  0  0  0  0  0  0  0  0  0  0  0
   70.9674   42.0667   34.5224 H   0  0  0  0  0  0  0  0  0  0  0  0
   71.4633   43.7630   34.6762 H   0  0  0  0  0  0  0  0  0  0  0  0
   73.3484   42.2604   35.2974 H   0  0  0  0  0  0  0  0  0  0  0  0
   72.8226   43.2534   36.6501 H   0  0  0  0  0  0  0  0  0  0  0  0
   74.8403   42.2737   37.6095 H   0  0  0  0  0  0  0  0  0  0  0  0
   73.6335   42.3506   38.9579 H   0  0  0  0  0  0  0  0  0  0  0  0
   76.4132   42.1900   40.1996 H   0  0  0  0  0  0  0  0  0  0  0  0
   77.5584   40.3680   41.4217 H   0  0  0  0  0  0  0  0  0  0  0  0
  1 19  1  0  0  0  0
  1 18  2  0  0  0  0
  1  2  1  0  0  0  0
  2  3  2  0  0  0  0
  2 20  1  0  0  0  0
  3  4  1  0  0  0  0
  3 16  1  0  0  0  0
  4  6  1  0  0  0  0
  4  5  2  0  0  0  0
  6 15  1  0  0  0  0
  7  6  1  0  0  0  0
  7 21  1  0  0  0  0
  7  8  1  0  0  0  0
  7 14  1  0  0  0  0
  8  9  2  0  0  0  0
  8 10  1  0  0  0  0
 10 22  1  0  0  0  0
 10 11  1  0  0  0  0
 11 12  2  0  0  0  0
 11 13  1  0  0  0  0
 13 23  1  0  0  0  0
 13 24  1  0  0  0  0
 13 14  1  0  0  0  0
 14 25  1  0  0  0  0
 14 26  1  0  0  0  0
 15 16  1  0  0  0  0
 15 27  1  0  0  0  0
 15 28  1  0  0  0  0
 16 17  2  0  0  0  0
 17 18  1  0  0  0  0
 17 29  1  0  0  0  0
 18 30  1  0  0  0  0
M  ZZC   1 c1
M  ZZC   2 c2
M  ZZC   3 c3
M  ZZC   4 c4
M  ZZC   5 o1
M  ZZC   6 n1
M  ZZC   7 c5
M  ZZC   8 c6
M  ZZC   9 o2
M  ZZC  10 n2
M  ZZC  11 c7
M  ZZC  12 o3
M  ZZC  13 c8
M  ZZC  14 c9
M  ZZC  15 c10
M  ZZC  16 c11
M  ZZC  17 c12
M  ZZC  18 c13
M  ZZC  19 h11
M  ZZC  20 h21
M  ZZC  21 h51
M  ZZC  22 h01
M  ZZC  23 h81
M  ZZC  24 h82
M  ZZC  25 h91
M  ZZC  26 h92
M  ZZC  27 h101
M  ZZC  28 h102
M  ZZC  29 h121
M  ZZC  30 h131
M  ZZM   1 37
M  ZZI   1 125
M  ZZM   2 37
M  ZZI   2 125
M  ZZM   3 37
M  ZZI   3 124
M  ZZM   4 3
M  ZZI   4 121
M  ZZM   5 7
M  ZZI   5 81
M  ZZM   6 10
M  ZZI   6 192
M  ZZM   7 1
M  ZZI   7 113
M  ZZM   8 3
M  ZZI   8 121
M  ZZM   9 7
M  ZZI   9 81
M  ZZM  10 10
M  ZZI  10 191
M  ZZM  11 3
M  ZZI  11 121
M  ZZM  12 7
M  ZZI  12 81
M  ZZM  13 1
M  ZZI  13 112
M  ZZM  14 1
M  ZZI  14 112
M  ZZM  15 1
M  ZZI  15 112
M  ZZM  16 37
M  ZZI  16 124
M  ZZM  17 37
M  ZZI  17 125
M  ZZM  18 37
M  ZZI  18 125
M  ZZM  19 5
M  ZZI  19 1
M  ZZM  20 5
M  ZZI  20 1
M  ZZM  21 5
M  ZZI  21 1
M  ZZM  22 28
M  ZZI  22 11
M  ZZM  23 5
M  ZZI  23 1
M  ZZM  24 5
M  ZZI  24 1
M  ZZM  25 5
M  ZZI  25 1
M  ZZM  26 5
M  ZZI  26 1
M  ZZM  27 5
M  ZZI  27 1
M  ZZM  28 5
M  ZZI  28 1
M  ZZM  29 5
M  ZZI  29 1
M  ZZM  30 5
M  ZZI  30 1
M  END
> <IX>
1

> <NAME>
Cereblon_6NUQ_18.pdb

> <Score>
-18.763325

> <Natom>
30

> <Nflex>
1

> <Hbond>
-3.984184

> <Hphob>
-3.972674

> <VwInt>
-22.131046

> <Dsolv>
11.751251

> <SolEl>
9.198685

> <Eintl>
1.041382

> <RecConf>
ND

> <projPath>
Cereblon_maps/

> <NAME_>
Cereblon_6NUQ_18.pdb

$$$$
