Cereblon_5V9O_16.pdb
  MOLSOFT 04032206273D

 29 31  0  0  1  0  0  0  0  0999 V2000
   79.8262   43.6081   42.5455 C   0  0  0  0  0  0  0  0  0  0  0  0
   79.0073   42.4925   42.6731 C   0  0  0  0  0  0  0  0  0  0  0  0
   78.1877   42.1974   41.5978 C   0  0  0  0  0  0  0  0  0  0  0  0
   77.2694   41.0798   41.4136 C   0  0  0  0  0  0  0  0  0  0  0  0
   77.0899   40.2197   42.2620 O   0  0  0  0  0  0  0  0  0  0  0  0
   76.7287   41.2205   40.1487 N   0  0  0  0  0  0  0  0  0  0  0  0
   77.2244   42.3473   39.5248 C   0  0  0  0  0  0  0  0  0  0  0  0
   76.9887   42.7657   38.3987 O   0  0  0  0  0  0  0  0  0  0  0  0
   78.1601   42.9594   40.4686 C   0  0  0  0  0  0  0  0  0  0  0  0
   78.9599   44.0749   40.3253 C   0  0  0  0  0  0  0  0  0  0  0  0
   79.8018   44.3856   41.3871 C   0  0  0  0  0  0  0  0  0  0  0  0
   75.7199   40.3660   39.5161 C   0  0  2  0  0  0  0  0  0  0  0  0
   74.3392   40.9334   39.8044 C   0  0  0  0  0  0  0  0  0  0  0  0
   74.1504   42.1193   40.0187 O   0  0  0  0  0  0  0  0  0  0  0  0
   73.2897   40.0504   39.7287 N   0  0  0  0  0  0  0  0  0  0  0  0
   73.3295   38.7047   39.4574 C   0  0  0  0  0  0  0  0  0  0  0  0
   72.3145   38.0300   39.4007 O   0  0  0  0  0  0  0  0  0  0  0  0
   74.6948   38.1249   39.1806 C   0  0  0  0  0  0  0  0  0  0  0  0
   75.7758   38.8958   39.9172 C   0  0  0  0  0  0  0  0  0  0  0  0
   80.4933   43.8777   43.3595 H   0  0  0  0  0  0  0  0  0  0  0  0
   79.0209   41.8775   43.5681 H   0  0  0  0  0  0  0  0  0  0  0  0
   78.9290   44.6758   39.4243 H   0  0  0  0  0  0  0  0  0  0  0  0
   80.4503   45.2519   41.3163 H   0  0  0  0  0  0  0  0  0  0  0  0
   75.8586   40.4534   38.4366 H   0  0  0  0  0  0  0  0  0  0  0  0
   72.3710   40.4435   39.8914 H   0  0  0  0  0  0  0  0  0  0  0  0
   74.7025   37.0789   39.5036 H   0  0  0  0  0  0  0  0  0  0  0  0
   74.8559   38.1462   38.0983 H   0  0  0  0  0  0  0  0  0  0  0  0
   76.7615   38.4749   39.6933 H   0  0  0  0  0  0  0  0  0  0  0  0
   75.6150   38.7751   40.9924 H   0  0  0  0  0  0  0  0  0  0  0  0
  1 20  1  0  0  0  0
  1  2  1  0  0  0  0
  1 11  2  0  0  0  0
  2 21  1  0  0  0  0
  2  3  2  0  0  0  0
  3  4  1  0  0  0  0
  3  9  1  0  0  0  0
  4  5  2  0  0  0  0
  4  6  1  0  0  0  0
  6  7  1  0  0  0  0
 12  6  1  0  0  0  0
  7  8  2  0  0  0  0
  7  9  1  0  0  0  0
  9 10  2  0  0  0  0
 10 22  1  0  0  0  0
 10 11  1  0  0  0  0
 11 23  1  0  0  0  0
 12 24  1  0  0  0  0
 12 13  1  0  0  0  0
 12 19  1  0  0  0  0
 13 14  2  0  0  0  0
 13 15  1  0  0  0  0
 15 25  1  0  0  0  0
 15 16  1  0  0  0  0
 16 17  2  0  0  0  0
 16 18  1  0  0  0  0
 18 26  1  0  0  0  0
 18 27  1  0  0  0  0
 18 19  1  0  0  0  0
 19 28  1  0  0  0  0
 19 29  1  0  0  0  0
M  ZZC   1 c1
M  ZZC   2 c2
M  ZZC   3 c3
M  ZZC   4 c4
M  ZZC   5 o1
M  ZZC   6 n1
M  ZZC   7 c5
M  ZZC   8 o2
M  ZZC   9 c6
M  ZZC  10 c7
M  ZZC  11 c8
M  ZZC  12 c9
M  ZZC  13 c10
M  ZZC  14 o3
M  ZZC  15 n2
M  ZZC  16 c11
M  ZZC  17 o4
M  ZZC  18 c12
M  ZZC  19 c13
M  ZZC  20 h11
M  ZZC  21 h21
M  ZZC  22 h71
M  ZZC  23 h81
M  ZZC  24 h91
M  ZZC  25 h01
M  ZZC  26 h121
M  ZZC  27 h122
M  ZZC  28 h131
M  ZZC  29 h132
M  ZZM   1 37
M  ZZI   1 125
M  ZZM   2 37
M  ZZI   2 125
M  ZZM   3 37
M  ZZI   3 124
M  ZZM   4 3
M  ZZI   4 121
M  ZZM   5 7
M  ZZI   5 81
M  ZZM   6 10
M  ZZI   6 192
M  ZZM   7 3
M  ZZI   7 121
M  ZZM   8 7
M  ZZI   8 81
M  ZZM   9 37
M  ZZI   9 124
M  ZZM  10 37
M  ZZI  10 125
M  ZZM  11 37
M  ZZI  11 125
M  ZZM  12 1
M  ZZI  12 113
M  ZZM  13 3
M  ZZI  13 121
M  ZZM  14 7
M  ZZI  14 81
M  ZZM  15 10
M  ZZI  15 191
M  ZZM  16 3
M  ZZI  16 121
M  ZZM  17 7
M  ZZI  17 81
M  ZZM  18 1
M  ZZI  18 112
M  ZZM  19 1
M  ZZI  19 112
M  ZZM  20 5
M  ZZI  20 1
M  ZZM  21 5
M  ZZI  21 1
M  ZZM  22 5
M  ZZI  22 1
M  ZZM  23 5
M  ZZI  23 1
M  ZZM  24 5
M  ZZI  24 1
M  ZZM  25 28
M  ZZI  25 11
M  ZZM  26 5
M  ZZI  26 1
M  ZZM  27 5
M  ZZI  27 1
M  ZZM  28 5
M  ZZI  28 1
M  ZZM  29 5
M  ZZI  29 1
M  END
> <IX>
1

> <NAME>
Cereblon_5V9O_16.pdb

> <Score>
-19.496607

> <Natom>
29

> <Nflex>
1

> <Hbond>
-3.356643

> <Hphob>
-3.563024

> <VwInt>
-22.7351

> <Dsolv>
11.989316

> <SolEl>
5.525224

> <Eintl>
1.465653

> <RecConf>
ND

> <projPath>
Cereblon_maps/

> <NAME_>
Cereblon_5V9O_16.pdb

$$$$
