Cereblon_3LQ5_16.pdb
  MOLSOFT 04032206213D

 29 31  0  0  1  0  0  0  0  0999 V2000
   79.0029   42.4907   42.6709 C   0  0  0  0  0  0  0  0  0  0  0  0
   78.1838   42.1952   41.5956 C   0  0  0  0  0  0  0  0  0  0  0  0
   77.2667   41.0766   41.4107 C   0  0  0  0  0  0  0  0  0  0  0  0
   77.0879   40.2143   42.2571 O   0  0  0  0  0  0  0  0  0  0  0  0
   76.7256   41.2186   40.1467 N   0  0  0  0  0  0  0  0  0  0  0  0
   77.2226   42.3446   39.5219 C   0  0  0  0  0  0  0  0  0  0  0  0
   76.9871   42.7627   38.3955 O   0  0  0  0  0  0  0  0  0  0  0  0
   78.1566   42.9573   40.4664 C   0  0  0  0  0  0  0  0  0  0  0  0
   78.9557   44.0733   40.3232 C   0  0  0  0  0  0  0  0  0  0  0  0
   79.7985   44.3836   41.3849 C   0  0  0  0  0  0  0  0  0  0  0  0
   79.8222   43.6062   42.5435 C   0  0  0  0  0  0  0  0  0  0  0  0
   75.7173   40.3634   39.5138 C   0  0  2  0  0  0  0  0  0  0  0  0
   74.3379   40.9325   39.8029 C   0  0  0  0  0  0  0  0  0  0  0  0
   74.1494   42.1181   40.0193 O   0  0  0  0  0  0  0  0  0  0  0  0
   73.2875   40.0507   39.7248 N   0  0  0  0  0  0  0  0  0  0  0  0
   73.3261   38.7053   39.4505 C   0  0  0  0  0  0  0  0  0  0  0  0
   72.3104   38.0321   39.3881 O   0  0  0  0  0  0  0  0  0  0  0  0
   74.6907   38.1236   39.1759 C   0  0  0  0  0  0  0  0  0  0  0  0
   75.7718   38.8928   39.9146 C   0  0  0  0  0  0  0  0  0  0  0  0
   79.0138   41.8766   43.5672 H   0  0  0  0  0  0  0  0  0  0  0  0
   78.9271   44.6727   39.4222 H   0  0  0  0  0  0  0  0  0  0  0  0
   80.4463   45.2494   41.3146 H   0  0  0  0  0  0  0  0  0  0  0  0
   80.4884   43.8751   43.3579 H   0  0  0  0  0  0  0  0  0  0  0  0
   75.8557   40.4526   38.4339 H   0  0  0  0  0  0  0  0  0  0  0  0
   72.3688   40.4442   39.8871 H   0  0  0  0  0  0  0  0  0  0  0  0
   74.6964   37.0777   39.5000 H   0  0  0  0  0  0  0  0  0  0  0  0
   74.8542   38.1462   38.0942 H   0  0  0  0  0  0  0  0  0  0  0  0
   75.6081   38.7725   40.9889 H   0  0  0  0  0  0  0  0  0  0  0  0
   76.7577   38.4708   39.6914 H   0  0  0  0  0  0  0  0  0  0  0  0
  1 20  1  0  0  0  0
  1  2  1  0  0  0  0
  1 11  2  0  0  0  0
  2  3  1  0  0  0  0
  2  8  2  0  0  0  0
  3  4  2  0  0  0  0
  3  5  1  0  0  0  0
  5  6  1  0  0  0  0
 12  5  1  0  0  0  0
  6  7  2  0  0  0  0
  6  8  1  0  0  0  0
  8  9  1  0  0  0  0
  9 21  1  0  0  0  0
  9 10  2  0  0  0  0
 10 22  1  0  0  0  0
 10 11  1  0  0  0  0
 11 23  1  0  0  0  0
 12 24  1  0  0  0  0
 12 13  1  0  0  0  0
 12 19  1  0  0  0  0
 13 14  2  0  0  0  0
 13 15  1  0  0  0  0
 15 25  1  0  0  0  0
 15 16  1  0  0  0  0
 16 17  2  0  0  0  0
 16 18  1  0  0  0  0
 18 26  1  0  0  0  0
 18 27  1  0  0  0  0
 18 19  1  0  0  0  0
 19 28  1  0  0  0  0
 19 29  1  0  0  0  0
M  ZZC   1 c1
M  ZZC   2 c2
M  ZZC   3 c3
M  ZZC   4 o1
M  ZZC   5 n1
M  ZZC   6 c4
M  ZZC   7 o2
M  ZZC   8 c5
M  ZZC   9 c6
M  ZZC  10 c7
M  ZZC  11 c8
M  ZZC  12 c9
M  ZZC  13 c10
M  ZZC  14 o3
M  ZZC  15 n2
M  ZZC  16 c11
M  ZZC  17 o4
M  ZZC  18 c12
M  ZZC  19 c13
M  ZZC  20 h11
M  ZZC  21 h61
M  ZZC  22 h71
M  ZZC  23 h81
M  ZZC  24 h91
M  ZZC  25 h21
M  ZZC  26 h121
M  ZZC  27 h122
M  ZZC  28 h131
M  ZZC  29 h132
M  ZZM   1 37
M  ZZI   1 125
M  ZZM   2 37
M  ZZI   2 124
M  ZZM   3 3
M  ZZI   3 121
M  ZZM   4 7
M  ZZI   4 81
M  ZZM   5 10
M  ZZI   5 192
M  ZZM   6 3
M  ZZI   6 121
M  ZZM   7 7
M  ZZI   7 81
M  ZZM   8 37
M  ZZI   8 124
M  ZZM   9 37
M  ZZI   9 125
M  ZZM  10 37
M  ZZI  10 125
M  ZZM  11 37
M  ZZI  11 125
M  ZZM  12 1
M  ZZI  12 113
M  ZZM  13 3
M  ZZI  13 121
M  ZZM  14 7
M  ZZI  14 81
M  ZZM  15 10
M  ZZI  15 191
M  ZZM  16 3
M  ZZI  16 121
M  ZZM  17 7
M  ZZI  17 81
M  ZZM  18 1
M  ZZI  18 112
M  ZZM  19 1
M  ZZI  19 112
M  ZZM  20 5
M  ZZI  20 1
M  ZZM  21 5
M  ZZI  21 1
M  ZZM  22 5
M  ZZI  22 1
M  ZZM  23 5
M  ZZI  23 1
M  ZZM  24 5
M  ZZI  24 1
M  ZZM  25 28
M  ZZI  25 11
M  ZZM  26 5
M  ZZI  26 1
M  ZZM  27 5
M  ZZI  27 1
M  ZZM  28 5
M  ZZI  28 1
M  ZZM  29 5
M  ZZI  29 1
M  END
> <IX>
1

> <NAME>
Cereblon_3LQ5_16.pdb

> <Score>
-19.403705

> <Natom>
29

> <Nflex>
1

> <Hbond>
-3.373356

> <Hphob>
-3.581404

> <VwInt>
-22.671347

> <Dsolv>
12.057486

> <SolEl>
5.577198

> <Eintl>
1.462847

> <RecConf>
ND

> <projPath>
Cereblon_maps/

> <NAME_>
Cereblon_3LQ5_16.pdb

$$$$
