Cereblon_4MXO_7.pdb
  MOLSOFT 04032206233D

 31 33  0  0  1  0  0  0  0  0999 V2000
   78.8179   41.6830   43.8101 N   0  0  0  0  0  0  0  0  0  0  0  0
   78.8994   42.4353   42.6285 C   0  0  0  0  0  0  0  0  0  0  0  0
   78.0974   42.1644   41.5330 C   0  0  0  0  0  0  0  0  0  0  0  0
   77.1769   41.0531   41.3278 C   0  0  0  0  0  0  0  0  0  0  0  0
   76.9959   40.1724   42.1558 O   0  0  0  0  0  0  0  0  0  0  0  0
   76.6419   41.2145   40.0653 N   0  0  0  0  0  0  0  0  0  0  0  0
   77.1639   42.3333   39.4485 C   0  0  0  0  0  0  0  0  0  0  0  0
   76.9539   42.7516   38.3173 O   0  0  0  0  0  0  0  0  0  0  0  0
   78.0946   42.9314   40.4074 C   0  0  0  0  0  0  0  0  0  0  0  0
   78.9069   44.0399   40.2846 C   0  0  0  0  0  0  0  0  0  0  0  0
   79.7253   44.3403   41.3675 C   0  0  0  0  0  0  0  0  0  0  0  0
   79.7127   43.5598   42.5251 C   0  0  0  0  0  0  0  0  0  0  0  0
   75.6229   40.3765   39.4298 C   0  0  2  0  0  0  0  0  0  0  0  0
   74.2523   40.9572   39.7323 C   0  0  0  0  0  0  0  0  0  0  0  0
   74.0835   42.1379   39.9889 O   0  0  0  0  0  0  0  0  0  0  0  0
   73.1904   40.0941   39.6157 N   0  0  0  0  0  0  0  0  0  0  0  0
   73.2138   38.7558   39.3055 C   0  0  0  0  0  0  0  0  0  0  0  0
   72.1877   38.1052   39.1923 O   0  0  0  0  0  0  0  0  0  0  0  0
   74.5767   38.1517   39.0623 C   0  0  0  0  0  0  0  0  0  0  0  0
   75.6556   38.9029   39.8224 C   0  0  0  0  0  0  0  0  0  0  0  0
   79.5340   41.7844   44.5264 H   0  0  0  0  0  0  0  0  0  0  0  0
   78.2826   40.8132   43.7931 H   0  0  0  0  0  0  0  0  0  0  0  0
   78.8992   44.6454   39.3860 H   0  0  0  0  0  0  0  0  0  0  0  0
   80.3777   45.2052   41.3194 H   0  0  0  0  0  0  0  0  0  0  0  0
   80.3495   43.8392   43.3590 H   0  0  0  0  0  0  0  0  0  0  0  0
   75.7573   40.4733   38.3512 H   0  0  0  0  0  0  0  0  0  0  0  0
   72.2751   40.4981   39.7711 H   0  0  0  0  0  0  0  0  0  0  0  0
   74.5573   37.1065   39.3870 H   0  0  0  0  0  0  0  0  0  0  0  0
   74.7675   38.1679   37.9848 H   0  0  0  0  0  0  0  0  0  0  0  0
   75.4721   38.7762   40.8933 H   0  0  0  0  0  0  0  0  0  0  0  0
   76.6400   38.4714   39.6148 H   0  0  0  0  0  0  0  0  0  0  0  0
  1  2  1  0  0  0  0
  1 21  1  0  0  0  0
  1 22  1  0  0  0  0
  2  3  1  0  0  0  0
  2 12  2  0  0  0  0
  3  9  2  0  0  0  0
  3  4  1  0  0  0  0
  4  5  2  0  0  0  0
  4  6  1  0  0  0  0
  6  7  1  0  0  0  0
 13  6  1  0  0  0  0
  7  8  2  0  0  0  0
  7  9  1  0  0  0  0
  9 10  1  0  0  0  0
 10 23  1  0  0  0  0
 10 11  2  0  0  0  0
 11 12  1  0  0  0  0
 11 24  1  0  0  0  0
 12 25  1  0  0  0  0
 13 26  1  0  0  0  0
 13 14  1  0  0  0  0
 13 20  1  0  0  0  0
 14 15  2  0  0  0  0
 14 16  1  0  0  0  0
 16 27  1  0  0  0  0
 16 17  1  0  0  0  0
 17 18  2  0  0  0  0
 17 19  1  0  0  0  0
 19 28  1  0  0  0  0
 19 29  1  0  0  0  0
 19 20  1  0  0  0  0
 20 30  1  0  0  0  0
 20 31  1  0  0  0  0
M  ZZC   1 n1
M  ZZC   2 c1
M  ZZC   3 c2
M  ZZC   4 c3
M  ZZC   5 o1
M  ZZC   6 n2
M  ZZC   7 c4
M  ZZC   8 o2
M  ZZC   9 c5
M  ZZC  10 c6
M  ZZC  11 c7
M  ZZC  12 c8
M  ZZC  13 c9
M  ZZC  14 c10
M  ZZC  15 o3
M  ZZC  16 n3
M  ZZC  17 c11
M  ZZC  18 o4
M  ZZC  19 c12
M  ZZC  20 c13
M  ZZC  21 h11
M  ZZC  22 h12
M  ZZC  23 h61
M  ZZC  24 h71
M  ZZC  25 h81
M  ZZC  26 h91
M  ZZC  27 h31
M  ZZC  28 h121
M  ZZC  29 h122
M  ZZC  30 h131
M  ZZC  31 h132
M  ZZM   1 40
M  ZZI   1 224
M  ZZM   2 37
M  ZZI   2 124
M  ZZM   3 37
M  ZZI   3 124
M  ZZM   4 3
M  ZZI   4 121
M  ZZM   5 7
M  ZZI   5 81
M  ZZM   6 10
M  ZZI   6 192
M  ZZM   7 3
M  ZZI   7 121
M  ZZM   8 7
M  ZZI   8 81
M  ZZM   9 37
M  ZZI   9 124
M  ZZM  10 37
M  ZZI  10 125
M  ZZM  11 37
M  ZZI  11 125
M  ZZM  12 37
M  ZZI  12 125
M  ZZM  13 1
M  ZZI  13 113
M  ZZM  14 3
M  ZZI  14 121
M  ZZM  15 7
M  ZZI  15 81
M  ZZM  16 10
M  ZZI  16 191
M  ZZM  17 3
M  ZZI  17 121
M  ZZM  18 7
M  ZZI  18 81
M  ZZM  19 1
M  ZZI  19 112
M  ZZM  20 1
M  ZZI  20 112
M  ZZM  21 28
M  ZZI  21 11
M  ZZM  22 28
M  ZZI  22 11
M  ZZM  23 5
M  ZZI  23 1
M  ZZM  24 5
M  ZZI  24 1
M  ZZM  25 5
M  ZZI  25 1
M  ZZM  26 5
M  ZZI  26 1
M  ZZM  27 28
M  ZZI  27 11
M  ZZM  28 5
M  ZZI  28 1
M  ZZM  29 5
M  ZZI  29 1
M  ZZM  30 5
M  ZZI  30 1
M  ZZM  31 5
M  ZZI  31 1
M  END
> <IX>
1

> <NAME>
Cereblon_4MXO_7.pdb

> <Score>
-18.500199

> <Natom>
31

> <Nflex>
1

> <Hbond>
-3.702411

> <Hphob>
-3.543428

> <VwInt>
-24.251639

> <Dsolv>
15.269262

> <SolEl>
6.693318

> <Eintl>
1.705167

> <RecConf>
ND

> <projPath>
Cereblon_maps/

> <NAME_>
Cereblon_4MXO_7.pdb

$$$$
