Cereblon_6W8L_12.pdb
  MOLSOFT 04032206293D

 30 32  0  0  1  0  0  0  0  0999 V2000
   72.7548   37.2236   33.8531 C   0  0  0  0  0  0  0  0  0  0  0  0
   72.6038   38.5958   33.9551 C   0  0  0  0  0  0  0  0  0  0  0  0
   72.7606   39.3863   32.8538 C   0  0  0  0  0  0  0  0  0  0  0  0
   72.5607   40.7812   33.2578 C   0  0  0  0  0  0  0  0  0  0  0  0
   72.6583   41.7222   32.4821 O   0  0  0  0  0  0  0  0  0  0  0  0
   72.2856   40.7785   34.6200 N   0  0  0  0  0  0  0  0  0  0  0  0
   72.3467   41.9686   35.4947 C   0  0  2  0  0  0  0  0  0  0  0  0
   71.8140   41.7189   36.9069 C   0  0  0  0  0  0  0  0  0  0  0  0
   72.4033   41.0136   37.7122 O   0  0  0  0  0  0  0  0  0  0  0  0
   70.5918   42.2720   37.2216 N   0  0  0  0  0  0  0  0  0  0  0  0
   69.7453   42.9921   36.4134 C   0  0  0  0  0  0  0  0  0  0  0  0
   68.7192   43.5172   36.8144 O   0  0  0  0  0  0  0  0  0  0  0  0
   70.1663   43.0842   34.9804 C   0  0  0  0  0  0  0  0  0  0  0  0
   71.6702   43.2158   34.9339 C   0  0  0  0  0  0  0  0  0  0  0  0
   72.3189   39.4240   35.1543 C   0  0  0  0  0  0  0  0  0  0  0  0
   73.1044   38.8862   31.6101 C   0  0  0  0  0  0  0  0  0  0  0  0
   73.2572   37.5127   31.4985 C   0  0  0  0  0  0  0  0  0  0  0  0
   73.0740   36.6926   32.6087 C   0  0  0  0  0  0  0  0  0  0  0  0
   72.6355   36.5787   34.7182 H   0  0  0  0  0  0  0  0  0  0  0  0
   73.4133   42.1976   35.6008 H   0  0  0  0  0  0  0  0  0  0  0  0
   70.3095   42.1689   38.1864 H   0  0  0  0  0  0  0  0  0  0  0  0
   69.8109   42.2043   34.4378 H   0  0  0  0  0  0  0  0  0  0  0  0
   69.6984   43.9675   34.5401 H   0  0  0  0  0  0  0  0  0  0  0  0
   71.9815   43.4103   33.9116 H   0  0  0  0  0  0  0  0  0  0  0  0
   71.9713   44.0885   35.5272 H   0  0  0  0  0  0  0  0  0  0  0  0
   71.3501   39.1811   35.6046 H   0  0  0  0  0  0  0  0  0  0  0  0
   73.1358   39.3320   35.8784 H   0  0  0  0  0  0  0  0  0  0  0  0
   73.2527   39.5392   30.7581 H   0  0  0  0  0  0  0  0  0  0  0  0
   73.5219   37.0778   30.5394 H   0  0  0  0  0  0  0  0  0  0  0  0
   73.1909   35.6199   32.5012 H   0  0  0  0  0  0  0  0  0  0  0  0
  1 19  1  0  0  0  0
  1 18  2  0  0  0  0
  1  2  1  0  0  0  0
  2  3  2  0  0  0  0
  2 15  1  0  0  0  0
  3 16  1  0  0  0  0
  3  4  1  0  0  0  0
  4  6  1  0  0  0  0
  4  5  2  0  0  0  0
  6 15  1  0  0  0  0
  7  6  1  0  0  0  0
  7 20  1  0  0  0  0
  7  8  1  0  0  0  0
  7 14  1  0  0  0  0
  8  9  2  0  0  0  0
  8 10  1  0  0  0  0
 10 21  1  0  0  0  0
 10 11  1  0  0  0  0
 11 12  2  0  0  0  0
 11 13  1  0  0  0  0
 13 22  1  0  0  0  0
 13 23  1  0  0  0  0
 13 14  1  0  0  0  0
 14 24  1  0  0  0  0
 14 25  1  0  0  0  0
 15 26  1  0  0  0  0
 15 27  1  0  0  0  0
 16 17  2  0  0  0  0
 16 28  1  0  0  0  0
 17 18  1  0  0  0  0
 17 29  1  0  0  0  0
 18 30  1  0  0  0  0
M  ZZC   1 c1
M  ZZC   2 c2
M  ZZC   3 c3
M  ZZC   4 c4
M  ZZC   5 o1
M  ZZC   6 n1
M  ZZC   7 c5
M  ZZC   8 c6
M  ZZC   9 o2
M  ZZC  10 n2
M  ZZC  11 c7
M  ZZC  12 o3
M  ZZC  13 c8
M  ZZC  14 c9
M  ZZC  15 c10
M  ZZC  16 c11
M  ZZC  17 c12
M  ZZC  18 c13
M  ZZC  19 h11
M  ZZC  20 h51
M  ZZC  21 h21
M  ZZC  22 h81
M  ZZC  23 h82
M  ZZC  24 h91
M  ZZC  25 h92
M  ZZC  26 h101
M  ZZC  27 h102
M  ZZC  28 h111
M  ZZC  29 h121
M  ZZC  30 h131
M  ZZM   1 37
M  ZZI   1 125
M  ZZM   2 37
M  ZZI   2 124
M  ZZM   3 37
M  ZZI   3 124
M  ZZM   4 3
M  ZZI   4 121
M  ZZM   5 7
M  ZZI   5 81
M  ZZM   6 10
M  ZZI   6 192
M  ZZM   7 1
M  ZZI   7 113
M  ZZM   8 3
M  ZZI   8 121
M  ZZM   9 7
M  ZZI   9 81
M  ZZM  10 10
M  ZZI  10 191
M  ZZM  11 3
M  ZZI  11 121
M  ZZM  12 7
M  ZZI  12 81
M  ZZM  13 1
M  ZZI  13 112
M  ZZM  14 1
M  ZZI  14 112
M  ZZM  15 1
M  ZZI  15 112
M  ZZM  16 37
M  ZZI  16 125
M  ZZM  17 37
M  ZZI  17 125
M  ZZM  18 37
M  ZZI  18 125
M  ZZM  19 5
M  ZZI  19 1
M  ZZM  20 5
M  ZZI  20 1
M  ZZM  21 28
M  ZZI  21 11
M  ZZM  22 5
M  ZZI  22 1
M  ZZM  23 5
M  ZZI  23 1
M  ZZM  24 5
M  ZZI  24 1
M  ZZM  25 5
M  ZZI  25 1
M  ZZM  26 5
M  ZZI  26 1
M  ZZM  27 5
M  ZZI  27 1
M  ZZM  28 5
M  ZZI  28 1
M  ZZM  29 5
M  ZZI  29 1
M  ZZM  30 5
M  ZZI  30 1
M  END
> <IX>
1

> <NAME>
Cereblon_6W8L_12.pdb

> <Score>
-25.440259

> <Natom>
30

> <Nflex>
1

> <Hbond>
-6.73273

> <Hphob>
-3.544591

> <VwInt>
-21.629466

> <Dsolv>
12.418384

> <SolEl>
3.237092

> <Eintl>
5.912702

> <RecConf>
ND

> <projPath>
Cereblon_maps/

> <NAME_>
Cereblon_6W8L_12.pdb

$$$$
