Cereblon_5TOB_7.pdb
  MOLSOFT 04032206273D

 31 33  0  0  1  0  0  0  0  0999 V2000
   78.3938   43.9473   39.9564 N   0  0  0  0  0  0  0  0  0  0  0  0
   78.0475   42.8130   40.7069 C   0  0  0  0  0  0  0  0  0  0  0  0
   77.1737   41.8438   40.2368 C   0  0  0  0  0  0  0  0  0  0  0  0
   76.3625   41.8244   39.0213 C   0  0  0  0  0  0  0  0  0  0  0  0
   76.4603   42.6299   38.1051 O   0  0  0  0  0  0  0  0  0  0  0  0
   75.4930   40.7600   39.1543 N   0  0  0  0  0  0  0  0  0  0  0  0
   75.8216   39.9973   40.2557 C   0  0  0  0  0  0  0  0  0  0  0  0
   75.3520   38.9378   40.6431 O   0  0  0  0  0  0  0  0  0  0  0  0
   76.8643   40.7329   40.9637 C   0  0  0  0  0  0  0  0  0  0  0  0
   77.4234   40.4786   42.2019 C   0  0  0  0  0  0  0  0  0  0  0  0
   78.3188   41.4210   42.6872 C   0  0  0  0  0  0  0  0  0  0  0  0
   78.6344   42.5597   41.9446 C   0  0  0  0  0  0  0  0  0  0  0  0
   74.2434   40.6719   38.3864 C   0  0  2  0  0  0  0  0  0  0  0  0
   73.2241   41.4620   39.1896 C   0  0  0  0  0  0  0  0  0  0  0  0
   73.5573   42.3074   40.0046 O   0  0  0  0  0  0  0  0  0  0  0  0
   71.9025   41.2216   38.9018 N   0  0  0  0  0  0  0  0  0  0  0  0
   71.3785   40.2655   38.0657 C   0  0  0  0  0  0  0  0  0  0  0  0
   70.1733   40.1610   37.8950 O   0  0  0  0  0  0  0  0  0  0  0  0
   72.3868   39.3964   37.3451 C   0  0  0  0  0  0  0  0  0  0  0  0
   73.6793   39.2740   38.1400 C   0  0  0  0  0  0  0  0  0  0  0  0
   78.7534   44.7528   40.4633 H   0  0  0  0  0  0  0  0  0  0  0  0
   77.8753   44.1168   39.0945 H   0  0  0  0  0  0  0  0  0  0  0  0
   77.1608   39.5974   42.7785 H   0  0  0  0  0  0  0  0  0  0  0  0
   78.7779   41.2712   43.6600 H   0  0  0  0  0  0  0  0  0  0  0  0
   79.3455   43.2713   42.3519 H   0  0  0  0  0  0  0  0  0  0  0  0
   74.3773   41.2129   37.4420 H   0  0  0  0  0  0  0  0  0  0  0  0
   71.2370   41.8201   39.3752 H   0  0  0  0  0  0  0  0  0  0  0  0
   71.9476   38.4045   37.1988 H   0  0  0  0  0  0  0  0  0  0  0  0
   72.5747   39.8337   36.3583 H   0  0  0  0  0  0  0  0  0  0  0  0
   73.4622   38.7657   39.0853 H   0  0  0  0  0  0  0  0  0  0  0  0
   74.3966   38.6489   37.6007 H   0  0  0  0  0  0  0  0  0  0  0  0
  1  2  1  0  0  0  0
  1 21  1  0  0  0  0
  1 22  1  0  0  0  0
  2  3  1  0  0  0  0
  2 12  2  0  0  0  0
  3  9  2  0  0  0  0
  3  4  1  0  0  0  0
  4  5  2  0  0  0  0
  4  6  1  0  0  0  0
  6  7  1  0  0  0  0
 13  6  1  0  0  0  0
  7  8  2  0  0  0  0
  7  9  1  0  0  0  0
  9 10  1  0  0  0  0
 10 23  1  0  0  0  0
 10 11  2  0  0  0  0
 11 12  1  0  0  0  0
 11 24  1  0  0  0  0
 12 25  1  0  0  0  0
 13 26  1  0  0  0  0
 13 14  1  0  0  0  0
 13 20  1  0  0  0  0
 14 15  2  0  0  0  0
 14 16  1  0  0  0  0
 16 27  1  0  0  0  0
 16 17  1  0  0  0  0
 17 18  2  0  0  0  0
 17 19  1  0  0  0  0
 19 28  1  0  0  0  0
 19 29  1  0  0  0  0
 19 20  1  0  0  0  0
 20 30  1  0  0  0  0
 20 31  1  0  0  0  0
M  ZZC   1 n1
M  ZZC   2 c1
M  ZZC   3 c2
M  ZZC   4 c3
M  ZZC   5 o1
M  ZZC   6 n2
M  ZZC   7 c4
M  ZZC   8 o2
M  ZZC   9 c5
M  ZZC  10 c6
M  ZZC  11 c7
M  ZZC  12 c8
M  ZZC  13 c9
M  ZZC  14 c10
M  ZZC  15 o3
M  ZZC  16 n3
M  ZZC  17 c11
M  ZZC  18 o4
M  ZZC  19 c12
M  ZZC  20 c13
M  ZZC  21 h11
M  ZZC  22 h12
M  ZZC  23 h61
M  ZZC  24 h71
M  ZZC  25 h81
M  ZZC  26 h91
M  ZZC  27 h31
M  ZZC  28 h121
M  ZZC  29 h122
M  ZZC  30 h131
M  ZZC  31 h132
M  ZZM   1 40
M  ZZI   1 224
M  ZZM   2 37
M  ZZI   2 124
M  ZZM   3 37
M  ZZI   3 124
M  ZZM   4 3
M  ZZI   4 121
M  ZZM   5 7
M  ZZI   5 81
M  ZZM   6 10
M  ZZI   6 192
M  ZZM   7 3
M  ZZI   7 121
M  ZZM   8 7
M  ZZI   8 81
M  ZZM   9 37
M  ZZI   9 124
M  ZZM  10 37
M  ZZI  10 125
M  ZZM  11 37
M  ZZI  11 125
M  ZZM  12 37
M  ZZI  12 125
M  ZZM  13 1
M  ZZI  13 113
M  ZZM  14 3
M  ZZI  14 121
M  ZZM  15 7
M  ZZI  15 81
M  ZZM  16 10
M  ZZI  16 191
M  ZZM  17 3
M  ZZI  17 121
M  ZZM  18 7
M  ZZI  18 81
M  ZZM  19 1
M  ZZI  19 112
M  ZZM  20 1
M  ZZI  20 112
M  ZZM  21 28
M  ZZI  21 11
M  ZZM  22 28
M  ZZI  22 11
M  ZZM  23 5
M  ZZI  23 1
M  ZZM  24 5
M  ZZI  24 1
M  ZZM  25 5
M  ZZI  25 1
M  ZZM  26 5
M  ZZI  26 1
M  ZZM  27 28
M  ZZI  27 11
M  ZZM  28 5
M  ZZI  28 1
M  ZZM  29 5
M  ZZI  29 1
M  ZZM  30 5
M  ZZI  30 1
M  ZZM  31 5
M  ZZI  31 1
M  END
> <IX>
1

> <NAME>
Cereblon_5TOB_7.pdb

> <Score>
-15.989401

> <Natom>
31

> <Nflex>
1

> <Hbond>
-4.839324

> <Hphob>
-3.534723

> <VwInt>
-23.06239

> <Dsolv>
17.72641

> <SolEl>
6.541482

> <Eintl>
5.787597

> <RecConf>
ND

> <projPath>
Cereblon_maps/

> <NAME_>
Cereblon_5TOB_7.pdb

$$$$
