Cereblon_6NUQ_6.pdb
  MOLSOFT 04032206293D

 30 32  0  0  1  0  0  0  0  0999 V2000
   76.0543   42.8346   38.6247 C   0  0  0  0  0  0  0  0  0  0  0  0
   74.9764   42.0546   38.2396 C   0  0  0  0  0  0  0  0  0  0  0  0
   74.7300   40.8671   38.8680 C   0  0  0  0  0  0  0  0  0  0  0  0
   73.5581   40.2490   38.2423 C   0  0  0  0  0  0  0  0  0  0  0  0
   73.1141   39.1567   38.5639 O   0  0  0  0  0  0  0  0  0  0  0  0
   73.1143   41.1260   37.2683 N   0  0  0  0  0  0  0  0  0  0  0  0
   71.9662   40.8465   36.3863 C   0  0  1  0  0  0  0  0  0  0  0  0
   70.6401   41.0195   37.1251 C   0  0  0  0  0  0  0  0  0  0  0  0
   70.2034   40.2203   37.9392 O   0  0  0  0  0  0  0  0  0  0  0  0
   69.9288   42.1592   36.8648 N   0  0  0  0  0  0  0  0  0  0  0  0
   70.2170   43.1846   36.0165 C   0  0  0  0  0  0  0  0  0  0  0  0
   69.4944   44.1642   35.9765 O   0  0  0  0  0  0  0  0  0  0  0  0
   71.4739   43.0564   35.2004 C   0  0  0  0  0  0  0  0  0  0  0  0
   71.9245   41.6081   35.0585 C   0  0  0  0  0  0  0  0  0  0  0  0
   73.9688   42.2986   37.1760 C   0  0  0  0  0  0  0  0  0  0  0  0
   75.5081   40.3846   39.9036 C   0  0  0  0  0  0  0  0  0  0  0  0
   76.5724   41.1745   40.3114 C   0  0  0  0  0  0  0  0  0  0  0  0
   76.8406   42.3845   39.6767 C   0  0  0  0  0  0  0  0  0  0  0  0
   76.2876   43.7696   38.1251 H   0  0  0  0  0  0  0  0  0  0  0  0
   72.0281   39.7786   36.1481 H   0  0  0  0  0  0  0  0  0  0  0  0
   69.0573   42.2564   37.3692 H   0  0  0  0  0  0  0  0  0  0  0  0
   71.2675   43.4636   34.2077 H   0  0  0  0  0  0  0  0  0  0  0  0
   72.2406   43.6880   35.6530 H   0  0  0  0  0  0  0  0  0  0  0  0
   71.2128   41.1020   34.3956 H   0  0  0  0  0  0  0  0  0  0  0  0
   72.8929   41.5647   34.5517 H   0  0  0  0  0  0  0  0  0  0  0  0
   73.3889   43.1999   37.3817 H   0  0  0  0  0  0  0  0  0  0  0  0
   74.4412   42.3396   36.1896 H   0  0  0  0  0  0  0  0  0  0  0  0
   75.2974   39.4307   40.3764 H   0  0  0  0  0  0  0  0  0  0  0  0
   77.2107   40.8418   41.1244 H   0  0  0  0  0  0  0  0  0  0  0  0
   77.6863   42.9812   40.0049 H   0  0  0  0  0  0  0  0  0  0  0  0
  1 19  1  0  0  0  0
  1 18  2  0  0  0  0
  1  2  1  0  0  0  0
  2  3  2  0  0  0  0
  2 15  1  0  0  0  0
  3 16  1  0  0  0  0
  3  4  1  0  0  0  0
  4  6  1  0  0  0  0
  4  5  2  0  0  0  0
  6 15  1  0  0  0  0
  7  6  1  0  0  0  0
  7 20  1  0  0  0  0
  7  8  1  0  0  0  0
  7 14  1  0  0  0  0
  8  9  2  0  0  0  0
  8 10  1  0  0  0  0
 10 21  1  0  0  0  0
 10 11  1  0  0  0  0
 11 12  2  0  0  0  0
 11 13  1  0  0  0  0
 13 22  1  0  0  0  0
 13 23  1  0  0  0  0
 13 14  1  0  0  0  0
 14 24  1  0  0  0  0
 14 25  1  0  0  0  0
 15 26  1  0  0  0  0
 15 27  1  0  0  0  0
 16 17  2  0  0  0  0
 16 28  1  0  0  0  0
 17 18  1  0  0  0  0
 17 29  1  0  0  0  0
 18 30  1  0  0  0  0
M  ZZC   1 c1
M  ZZC   2 c2
M  ZZC   3 c3
M  ZZC   4 c4
M  ZZC   5 o1
M  ZZC   6 n1
M  ZZC   7 c5
M  ZZC   8 c6
M  ZZC   9 o2
M  ZZC  10 n2
M  ZZC  11 c7
M  ZZC  12 o3
M  ZZC  13 c8
M  ZZC  14 c9
M  ZZC  15 c10
M  ZZC  16 c11
M  ZZC  17 c12
M  ZZC  18 c13
M  ZZC  19 h11
M  ZZC  20 h51
M  ZZC  21 h21
M  ZZC  22 h81
M  ZZC  23 h82
M  ZZC  24 h91
M  ZZC  25 h92
M  ZZC  26 h101
M  ZZC  27 h102
M  ZZC  28 h111
M  ZZC  29 h121
M  ZZC  30 h131
M  ZZM   1 37
M  ZZI   1 125
M  ZZM   2 37
M  ZZI   2 124
M  ZZM   3 37
M  ZZI   3 124
M  ZZM   4 3
M  ZZI   4 121
M  ZZM   5 7
M  ZZI   5 81
M  ZZM   6 10
M  ZZI   6 192
M  ZZM   7 1
M  ZZI   7 113
M  ZZM   8 3
M  ZZI   8 121
M  ZZM   9 7
M  ZZI   9 81
M  ZZM  10 10
M  ZZI  10 191
M  ZZM  11 3
M  ZZI  11 121
M  ZZM  12 7
M  ZZI  12 81
M  ZZM  13 1
M  ZZI  13 112
M  ZZM  14 1
M  ZZI  14 112
M  ZZM  15 1
M  ZZI  15 112
M  ZZM  16 37
M  ZZI  16 125
M  ZZM  17 37
M  ZZI  17 125
M  ZZM  18 37
M  ZZI  18 125
M  ZZM  19 5
M  ZZI  19 1
M  ZZM  20 5
M  ZZI  20 1
M  ZZM  21 28
M  ZZI  21 11
M  ZZM  22 5
M  ZZI  22 1
M  ZZM  23 5
M  ZZI  23 1
M  ZZM  24 5
M  ZZI  24 1
M  ZZM  25 5
M  ZZI  25 1
M  ZZM  26 5
M  ZZI  26 1
M  ZZM  27 5
M  ZZI  27 1
M  ZZM  28 5
M  ZZI  28 1
M  ZZM  29 5
M  ZZI  29 1
M  ZZM  30 5
M  ZZI  30 1
M  END
> <IX>
1

> <NAME>
Cereblon_6NUQ_6.pdb

> <Score>
-14.421225

> <Natom>
30

> <Nflex>
1

> <Hbond>
-4.300891

> <Hphob>
-3.922788

> <VwInt>
-21.775792

> <Dsolv>
12.558367

> <SolEl>
11.485826

> <Eintl>
5.441115

> <RecConf>
ND

> <projPath>
Cereblon_maps/

> <NAME_>
Cereblon_6NUQ_6.pdb

$$$$
