Cereblon_5L2S_6.pdb
  MOLSOFT 04032206253D

 31 33  0  0  1  0  0  0  0  0999 V2000
   77.5310   41.8434   42.0069 N   0  0  0  0  0  0  0  0  0  0  0  0
   77.2929   40.5529   41.5105 C   0  0  0  0  0  0  0  0  0  0  0  0
   76.3443   40.2745   40.5325 C   0  0  0  0  0  0  0  0  0  0  0  0
   75.4272   41.1555   39.7995 C   0  0  0  0  0  0  0  0  0  0  0  0
   75.2712   42.3446   40.0295 O   0  0  0  0  0  0  0  0  0  0  0  0
   74.7816   40.3689   38.8706 N   0  0  0  0  0  0  0  0  0  0  0  0
   75.0974   39.0424   39.0539 C   0  0  0  0  0  0  0  0  0  0  0  0
   74.6218   38.0520   38.5176 O   0  0  0  0  0  0  0  0  0  0  0  0
   76.1263   39.0028   40.0893 C   0  0  0  0  0  0  0  0  0  0  0  0
   76.7965   37.9084   40.5998 C   0  0  0  0  0  0  0  0  0  0  0  0
   77.7103   38.1558   41.6135 C   0  0  0  0  0  0  0  0  0  0  0  0
   77.9396   39.4532   42.0671 C   0  0  0  0  0  0  0  0  0  0  0  0
   73.7342   40.8236   37.9522 C   0  0  2  0  0  0  0  0  0  0  0  0
   74.1620   42.0588   37.1631 C   0  0  0  0  0  0  0  0  0  0  0  0
   75.3296   42.3377   36.9296 O   0  0  0  0  0  0  0  0  0  0  0  0
   73.1339   42.8178   36.6519 N   0  0  0  0  0  0  0  0  0  0  0  0
   71.7787   42.6479   36.8096 C   0  0  0  0  0  0  0  0  0  0  0  0
   70.9700   43.3983   36.2848 O   0  0  0  0  0  0  0  0  0  0  0  0
   71.3526   41.4523   37.6291 C   0  0  0  0  0  0  0  0  0  0  0  0
   72.4064   41.0640   38.6563 C   0  0  0  0  0  0  0  0  0  0  0  0
   78.3164   41.9974   42.6353 H   0  0  0  0  0  0  0  0  0  0  0  0
   77.1712   42.6477   41.4909 H   0  0  0  0  0  0  0  0  0  0  0  0
   76.6093   36.9019   40.2374 H   0  0  0  0  0  0  0  0  0  0  0  0
   78.2505   37.3286   42.0638 H   0  0  0  0  0  0  0  0  0  0  0  0
   78.6492   39.6049   42.8743 H   0  0  0  0  0  0  0  0  0  0  0  0
   73.5880   40.0266   37.2137 H   0  0  0  0  0  0  0  0  0  0  0  0
   73.4058   43.6251   36.1081 H   0  0  0  0  0  0  0  0  0  0  0  0
   70.4161   41.6976   38.1376 H   0  0  0  0  0  0  0  0  0  0  0  0
   71.1553   40.6235   36.9413 H   0  0  0  0  0  0  0  0  0  0  0  0
   72.5113   41.8464   39.4144 H   0  0  0  0  0  0  0  0  0  0  0  0
   72.0874   40.1616   39.1876 H   0  0  0  0  0  0  0  0  0  0  0  0
  1  2  1  0  0  0  0
  1 21  1  0  0  0  0
  1 22  1  0  0  0  0
  2  3  1  0  0  0  0
  2 12  2  0  0  0  0
  3  9  2  0  0  0  0
  3  4  1  0  0  0  0
  4  5  2  0  0  0  0
  4  6  1  0  0  0  0
  6  7  1  0  0  0  0
 13  6  1  0  0  0  0
  7  8  2  0  0  0  0
  7  9  1  0  0  0  0
  9 10  1  0  0  0  0
 10 23  1  0  0  0  0
 10 11  2  0  0  0  0
 11 12  1  0  0  0  0
 11 24  1  0  0  0  0
 12 25  1  0  0  0  0
 13 26  1  0  0  0  0
 13 14  1  0  0  0  0
 13 20  1  0  0  0  0
 14 15  2  0  0  0  0
 14 16  1  0  0  0  0
 16 27  1  0  0  0  0
 16 17  1  0  0  0  0
 17 18  2  0  0  0  0
 17 19  1  0  0  0  0
 19 28  1  0  0  0  0
 19 29  1  0  0  0  0
 19 20  1  0  0  0  0
 20 30  1  0  0  0  0
 20 31  1  0  0  0  0
M  ZZC   1 n1
M  ZZC   2 c1
M  ZZC   3 c2
M  ZZC   4 c3
M  ZZC   5 o1
M  ZZC   6 n2
M  ZZC   7 c4
M  ZZC   8 o2
M  ZZC   9 c5
M  ZZC  10 c6
M  ZZC  11 c7
M  ZZC  12 c8
M  ZZC  13 c9
M  ZZC  14 c10
M  ZZC  15 o3
M  ZZC  16 n3
M  ZZC  17 c11
M  ZZC  18 o4
M  ZZC  19 c12
M  ZZC  20 c13
M  ZZC  21 h11
M  ZZC  22 h12
M  ZZC  23 h61
M  ZZC  24 h71
M  ZZC  25 h81
M  ZZC  26 h91
M  ZZC  27 h31
M  ZZC  28 h121
M  ZZC  29 h122
M  ZZC  30 h131
M  ZZC  31 h132
M  ZZM   1 40
M  ZZI   1 224
M  ZZM   2 37
M  ZZI   2 124
M  ZZM   3 37
M  ZZI   3 124
M  ZZM   4 3
M  ZZI   4 121
M  ZZM   5 7
M  ZZI   5 81
M  ZZM   6 10
M  ZZI   6 192
M  ZZM   7 3
M  ZZI   7 121
M  ZZM   8 7
M  ZZI   8 81
M  ZZM   9 37
M  ZZI   9 124
M  ZZM  10 37
M  ZZI  10 125
M  ZZM  11 37
M  ZZI  11 125
M  ZZM  12 37
M  ZZI  12 125
M  ZZM  13 1
M  ZZI  13 113
M  ZZM  14 3
M  ZZI  14 121
M  ZZM  15 7
M  ZZI  15 81
M  ZZM  16 10
M  ZZI  16 191
M  ZZM  17 3
M  ZZI  17 121
M  ZZM  18 7
M  ZZI  18 81
M  ZZM  19 1
M  ZZI  19 112
M  ZZM  20 1
M  ZZI  20 112
M  ZZM  21 28
M  ZZI  21 11
M  ZZM  22 28
M  ZZI  22 11
M  ZZM  23 5
M  ZZI  23 1
M  ZZM  24 5
M  ZZI  24 1
M  ZZM  25 5
M  ZZI  25 1
M  ZZM  26 5
M  ZZI  26 1
M  ZZM  27 28
M  ZZI  27 11
M  ZZM  28 5
M  ZZI  28 1
M  ZZM  29 5
M  ZZI  29 1
M  ZZM  30 5
M  ZZI  30 1
M  ZZM  31 5
M  ZZI  31 1
M  END
> <IX>
1

> <NAME>
Cereblon_5L2S_6.pdb

> <Score>
-15.328431

> <Natom>
31

> <Nflex>
1

> <Hbond>
-4.11175

> <Hphob>
-3.531785

> <VwInt>
-23.1453

> <Dsolv>
17.257997

> <SolEl>
7.988638

> <Eintl>
2.949824

> <RecConf>
ND

> <projPath>
Cereblon_maps/

> <NAME_>
Cereblon_5L2S_6.pdb

$$$$
