Cereblon_2EUF_5.pdb
  MOLSOFT 04032206193D

 31 33  0  0  1  0  0  0  0  0999 V2000
   78.8146   41.6767   43.8196 N   0  0  0  0  0  0  0  0  0  0  0  0
   78.9074   42.4222   42.6339 C   0  0  0  0  0  0  0  0  0  0  0  0
   78.1010   42.1578   41.5397 C   0  0  0  0  0  0  0  0  0  0  0  0
   77.1810   41.0468   41.3316 C   0  0  0  0  0  0  0  0  0  0  0  0
   77.0004   40.1634   42.1567 O   0  0  0  0  0  0  0  0  0  0  0  0
   76.6460   41.2120   40.0694 N   0  0  0  0  0  0  0  0  0  0  0  0
   77.1675   42.3326   39.4561 C   0  0  0  0  0  0  0  0  0  0  0  0
   76.9550   42.7558   38.3272 O   0  0  0  0  0  0  0  0  0  0  0  0
   78.0986   42.9276   40.4162 C   0  0  0  0  0  0  0  0  0  0  0  0
   78.9094   44.0380   40.2962 C   0  0  0  0  0  0  0  0  0  0  0  0
   79.7248   44.3377   41.3819 C   0  0  0  0  0  0  0  0  0  0  0  0
   79.7123   43.5537   42.5369 C   0  0  0  0  0  0  0  0  0  0  0  0
   75.6265   40.3759   39.4320 C   0  0  2  0  0  0  0  0  0  0  0  0
   74.2551   40.9550   39.7361 C   0  0  0  0  0  0  0  0  0  0  0  0
   74.0839   42.1351   39.9930 O   0  0  0  0  0  0  0  0  0  0  0  0
   73.1940   40.0900   39.6226 N   0  0  0  0  0  0  0  0  0  0  0  0
   73.2185   38.7521   39.3103 C   0  0  0  0  0  0  0  0  0  0  0  0
   72.1932   38.0994   39.2030 O   0  0  0  0  0  0  0  0  0  0  0  0
   74.5816   38.1535   39.0564 C   0  0  0  0  0  0  0  0  0  0  0  0
   75.6593   38.9018   39.8208 C   0  0  0  0  0  0  0  0  0  0  0  0
   79.5536   41.7601   44.5144 H   0  0  0  0  0  0  0  0  0  0  0  0
   78.3219   40.7831   43.7776 H   0  0  0  0  0  0  0  0  0  0  0  0
   78.9010   44.6471   39.4003 H   0  0  0  0  0  0  0  0  0  0  0  0
   80.3714   45.2070   41.3391 H   0  0  0  0  0  0  0  0  0  0  0  0
   80.3432   43.8359   43.3746 H   0  0  0  0  0  0  0  0  0  0  0  0
   75.7619   40.4758   38.3539 H   0  0  0  0  0  0  0  0  0  0  0  0
   72.2787   40.4920   39.7828 H   0  0  0  0  0  0  0  0  0  0  0  0
   74.5669   37.1057   39.3727 H   0  0  0  0  0  0  0  0  0  0  0  0
   74.7693   38.1799   37.9784 H   0  0  0  0  0  0  0  0  0  0  0  0
   75.4739   38.7738   40.8912 H   0  0  0  0  0  0  0  0  0  0  0  0
   76.6438   38.4703   39.6134 H   0  0  0  0  0  0  0  0  0  0  0  0
  1  2  1  0  0  0  0
  1 21  1  0  0  0  0
  1 22  1  0  0  0  0
  2  3  1  0  0  0  0
  2 12  2  0  0  0  0
  3  9  2  0  0  0  0
  3  4  1  0  0  0  0
  4  5  2  0  0  0  0
  4  6  1  0  0  0  0
  6  7  1  0  0  0  0
 13  6  1  0  0  0  0
  7  8  2  0  0  0  0
  7  9  1  0  0  0  0
  9 10  1  0  0  0  0
 10 23  1  0  0  0  0
 10 11  2  0  0  0  0
 11 12  1  0  0  0  0
 11 24  1  0  0  0  0
 12 25  1  0  0  0  0
 13 26  1  0  0  0  0
 13 14  1  0  0  0  0
 13 20  1  0  0  0  0
 14 15  2  0  0  0  0
 14 16  1  0  0  0  0
 16 27  1  0  0  0  0
 16 17  1  0  0  0  0
 17 18  2  0  0  0  0
 17 19  1  0  0  0  0
 19 28  1  0  0  0  0
 19 29  1  0  0  0  0
 19 20  1  0  0  0  0
 20 30  1  0  0  0  0
 20 31  1  0  0  0  0
M  ZZC   1 n1
M  ZZC   2 c1
M  ZZC   3 c2
M  ZZC   4 c3
M  ZZC   5 o1
M  ZZC   6 n2
M  ZZC   7 c4
M  ZZC   8 o2
M  ZZC   9 c5
M  ZZC  10 c6
M  ZZC  11 c7
M  ZZC  12 c8
M  ZZC  13 c9
M  ZZC  14 c10
M  ZZC  15 o3
M  ZZC  16 n3
M  ZZC  17 c11
M  ZZC  18 o4
M  ZZC  19 c12
M  ZZC  20 c13
M  ZZC  21 h11
M  ZZC  22 h12
M  ZZC  23 h61
M  ZZC  24 h71
M  ZZC  25 h81
M  ZZC  26 h91
M  ZZC  27 h31
M  ZZC  28 h121
M  ZZC  29 h122
M  ZZC  30 h131
M  ZZC  31 h132
M  ZZM   1 40
M  ZZI   1 224
M  ZZM   2 37
M  ZZI   2 124
M  ZZM   3 37
M  ZZI   3 124
M  ZZM   4 3
M  ZZI   4 121
M  ZZM   5 7
M  ZZI   5 81
M  ZZM   6 10
M  ZZI   6 192
M  ZZM   7 3
M  ZZI   7 121
M  ZZM   8 7
M  ZZI   8 81
M  ZZM   9 37
M  ZZI   9 124
M  ZZM  10 37
M  ZZI  10 125
M  ZZM  11 37
M  ZZI  11 125
M  ZZM  12 37
M  ZZI  12 125
M  ZZM  13 1
M  ZZI  13 113
M  ZZM  14 3
M  ZZI  14 121
M  ZZM  15 7
M  ZZI  15 81
M  ZZM  16 10
M  ZZI  16 191
M  ZZM  17 3
M  ZZI  17 121
M  ZZM  18 7
M  ZZI  18 81
M  ZZM  19 1
M  ZZI  19 112
M  ZZM  20 1
M  ZZI  20 112
M  ZZM  21 28
M  ZZI  21 11
M  ZZM  22 28
M  ZZI  22 11
M  ZZM  23 5
M  ZZI  23 1
M  ZZM  24 5
M  ZZI  24 1
M  ZZM  25 5
M  ZZI  25 1
M  ZZM  26 5
M  ZZI  26 1
M  ZZM  27 28
M  ZZI  27 11
M  ZZM  28 5
M  ZZI  28 1
M  ZZM  29 5
M  ZZI  29 1
M  ZZM  30 5
M  ZZI  30 1
M  ZZM  31 5
M  ZZI  31 1
M  END
> <IX>
1

> <NAME>
Cereblon_2EUF_5.pdb

> <Score>
-18.54991

> <Natom>
31

> <Nflex>
1

> <Hbond>
-3.712278

> <Hphob>
-3.583192

> <VwInt>
-24.194051

> <Dsolv>
15.102725

> <SolEl>
6.816973

> <Eintl>
1.684495

> <RecConf>
ND

> <projPath>
Cereblon_maps/

> <NAME_>
Cereblon_2EUF_5.pdb

$$$$
