Cereblon_3HLL_11.pdb
  MOLSOFT 04032206203D

 29 31  0  0  1  0  0  0  0  0999 V2000
   69.7693   42.5130   36.8234 C   0  0  0  0  0  0  0  0  0  0  0  0
   71.0172   42.0689   37.2252 C   0  0  0  0  0  0  0  0  0  0  0  0
   71.4127   41.2340   38.3589 C   0  0  0  0  0  0  0  0  0  0  0  0
   70.6178   40.6642   39.0920 O   0  0  0  0  0  0  0  0  0  0  0  0
   72.7942   41.1751   38.3340 N   0  0  0  0  0  0  0  0  0  0  0  0
   73.2906   41.8121   37.2148 C   0  0  0  0  0  0  0  0  0  0  0  0
   74.4413   41.9113   36.8125 O   0  0  0  0  0  0  0  0  0  0  0  0
   72.1428   42.4057   36.5444 C   0  0  0  0  0  0  0  0  0  0  0  0
   72.1093   43.2021   35.4246 C   0  0  0  0  0  0  0  0  0  0  0  0
   70.8704   43.6670   35.0118 C   0  0  0  0  0  0  0  0  0  0  0  0
   69.7117   43.3166   35.6951 C   0  0  0  0  0  0  0  0  0  0  0  0
   73.5981   40.3629   39.2502 C   0  0  2  0  0  0  0  0  0  0  0  0
   74.8689   41.1085   39.6575 C   0  0  0  0  0  0  0  0  0  0  0  0
   74.8806   42.3115   39.8641 O   0  0  0  0  0  0  0  0  0  0  0  0
   75.9934   40.3433   39.8659 N   0  0  0  0  0  0  0  0  0  0  0  0
   76.0914   38.9754   39.8937 C   0  0  0  0  0  0  0  0  0  0  0  0
   77.1313   38.4059   40.1835 O   0  0  0  0  0  0  0  0  0  0  0  0
   74.8161   38.2215   39.6153 C   0  0  0  0  0  0  0  0  0  0  0  0
   73.9208   38.9946   38.6645 C   0  0  0  0  0  0  0  0  0  0  0  0
   68.8676   42.2564   37.3625 H   0  0  0  0  0  0  0  0  0  0  0  0
   73.0194   43.4529   34.9035 H   0  0  0  0  0  0  0  0  0  0  0  0
   70.8015   44.3166   34.1502 H   0  0  0  0  0  0  0  0  0  0  0  0
   68.7534   43.6813   35.3421 H   0  0  0  0  0  0  0  0  0  0  0  0
   73.0067   40.2223   40.1623 H   0  0  0  0  0  0  0  0  0  0  0  0
   76.8484   40.8442   40.0804 H   0  0  0  0  0  0  0  0  0  0  0  0
   75.0728   37.2529   39.1748 H   0  0  0  0  0  0  0  0  0  0  0  0
   74.3096   38.0369   40.5685 H   0  0  0  0  0  0  0  0  0  0  0  0
   74.4108   39.0949   37.6928 H   0  0  0  0  0  0  0  0  0  0  0  0
   72.9986   38.4323   38.4847 H   0  0  0  0  0  0  0  0  0  0  0  0
  1 20  1  0  0  0  0
  1  2  1  0  0  0  0
  1 11  2  0  0  0  0
  2  3  1  0  0  0  0
  2  8  2  0  0  0  0
  3  4  2  0  0  0  0
  3  5  1  0  0  0  0
  5  6  1  0  0  0  0
 12  5  1  0  0  0  0
  6  7  2  0  0  0  0
  6  8  1  0  0  0  0
  8  9  1  0  0  0  0
  9 21  1  0  0  0  0
  9 10  2  0  0  0  0
 10 22  1  0  0  0  0
 10 11  1  0  0  0  0
 11 23  1  0  0  0  0
 12 24  1  0  0  0  0
 12 13  1  0  0  0  0
 12 19  1  0  0  0  0
 13 14  2  0  0  0  0
 13 15  1  0  0  0  0
 15 25  1  0  0  0  0
 15 16  1  0  0  0  0
 16 17  2  0  0  0  0
 16 18  1  0  0  0  0
 18 26  1  0  0  0  0
 18 27  1  0  0  0  0
 18 19  1  0  0  0  0
 19 28  1  0  0  0  0
 19 29  1  0  0  0  0
M  ZZC   1 c1
M  ZZC   2 c2
M  ZZC   3 c3
M  ZZC   4 o1
M  ZZC   5 n1
M  ZZC   6 c4
M  ZZC   7 o2
M  ZZC   8 c5
M  ZZC   9 c6
M  ZZC  10 c7
M  ZZC  11 c8
M  ZZC  12 c9
M  ZZC  13 c10
M  ZZC  14 o3
M  ZZC  15 n2
M  ZZC  16 c11
M  ZZC  17 o4
M  ZZC  18 c12
M  ZZC  19 c13
M  ZZC  20 h11
M  ZZC  21 h61
M  ZZC  22 h71
M  ZZC  23 h81
M  ZZC  24 h91
M  ZZC  25 h21
M  ZZC  26 h121
M  ZZC  27 h122
M  ZZC  28 h131
M  ZZC  29 h132
M  ZZM   1 37
M  ZZI   1 125
M  ZZM   2 37
M  ZZI   2 124
M  ZZM   3 3
M  ZZI   3 121
M  ZZM   4 7
M  ZZI   4 81
M  ZZM   5 10
M  ZZI   5 192
M  ZZM   6 3
M  ZZI   6 121
M  ZZM   7 7
M  ZZI   7 81
M  ZZM   8 37
M  ZZI   8 124
M  ZZM   9 37
M  ZZI   9 125
M  ZZM  10 37
M  ZZI  10 125
M  ZZM  11 37
M  ZZI  11 125
M  ZZM  12 1
M  ZZI  12 113
M  ZZM  13 3
M  ZZI  13 121
M  ZZM  14 7
M  ZZI  14 81
M  ZZM  15 10
M  ZZI  15 191
M  ZZM  16 3
M  ZZI  16 121
M  ZZM  17 7
M  ZZI  17 81
M  ZZM  18 1
M  ZZI  18 112
M  ZZM  19 1
M  ZZI  19 112
M  ZZM  20 5
M  ZZI  20 1
M  ZZM  21 5
M  ZZI  21 1
M  ZZM  22 5
M  ZZI  22 1
M  ZZM  23 5
M  ZZI  23 1
M  ZZM  24 5
M  ZZI  24 1
M  ZZM  25 28
M  ZZI  25 11
M  ZZM  26 5
M  ZZI  26 1
M  ZZM  27 5
M  ZZI  27 1
M  ZZM  28 5
M  ZZI  28 1
M  ZZM  29 5
M  ZZI  29 1
M  END
> <IX>
1

> <NAME>
Cereblon_3HLL_11.pdb

> <Score>
-12.663451

> <Natom>
29

> <Nflex>
1

> <Hbond>
-3.854634

> <Hphob>
-3.340057

> <VwInt>
-18.047911

> <Dsolv>
12.967963

> <SolEl>
7.493819

> <Eintl>
3.504384

> <RecConf>
ND

> <projPath>
Cereblon_maps/

> <NAME_>
Cereblon_3HLL_11.pdb

$$$$
