Cereblon_4XUF_6.pdb
  MOLSOFT 04032206243D

 29 31  0  0  1  0  0  0  0  0999 V2000
   74.9102   37.6943   38.9451 C   0  0  0  0  0  0  0  0  0  0  0  0
   74.4792   38.9899   38.7295 C   0  0  0  0  0  0  0  0  0  0  0  0
   73.4967   39.5018   37.7748 C   0  0  0  0  0  0  0  0  0  0  0  0
   72.8776   38.8008   36.9885 O   0  0  0  0  0  0  0  0  0  0  0  0
   73.4472   40.8668   37.9687 N   0  0  0  0  0  0  0  0  0  0  0  0
   74.3058   41.2524   38.9805 C   0  0  0  0  0  0  0  0  0  0  0  0
   74.5029   42.3619   39.4545 O   0  0  0  0  0  0  0  0  0  0  0  0
   74.9817   40.0423   39.4329 C   0  0  0  0  0  0  0  0  0  0  0  0
   75.9686   39.8907   40.3892 C   0  0  0  0  0  0  0  0  0  0  0  0
   76.4233   38.5977   40.6164 C   0  0  0  0  0  0  0  0  0  0  0  0
   75.8975   37.5154   39.9084 C   0  0  0  0  0  0  0  0  0  0  0  0
   72.5877   41.7979   37.2354 C   0  0  2  0  0  0  0  0  0  0  0  0
   71.1186   41.6087   37.6016 C   0  0  0  0  0  0  0  0  0  0  0  0
   70.7272   40.9998   38.5860 O   0  0  0  0  0  0  0  0  0  0  0  0
   70.2249   42.2136   36.7479 N   0  0  0  0  0  0  0  0  0  0  0  0
   70.4831   42.8383   35.5546 C   0  0  0  0  0  0  0  0  0  0  0  0
   69.5943   43.3641   34.9047 O   0  0  0  0  0  0  0  0  0  0  0  0
   71.9294   42.8780   35.1212 C   0  0  0  0  0  0  0  0  0  0  0  0
   72.7327   41.7357   35.7232 C   0  0  0  0  0  0  0  0  0  0  0  0
   74.5036   36.8577   38.3842 H   0  0  0  0  0  0  0  0  0  0  0  0
   76.3710   40.7388   40.9361 H   0  0  0  0  0  0  0  0  0  0  0  0
   77.1984   38.4280   41.3579 H   0  0  0  0  0  0  0  0  0  0  0  0
   76.2702   36.5155   40.1087 H   0  0  0  0  0  0  0  0  0  0  0  0
   72.8740   42.8045   37.5491 H   0  0  0  0  0  0  0  0  0  0  0  0
   69.2466   42.1572   37.0044 H   0  0  0  0  0  0  0  0  0  0  0  0
   71.9663   42.8223   34.0292 H   0  0  0  0  0  0  0  0  0  0  0  0
   72.3393   43.8445   35.4330 H   0  0  0  0  0  0  0  0  0  0  0  0
   73.7850   41.8292   35.4387 H   0  0  0  0  0  0  0  0  0  0  0  0
   72.3729   40.7793   35.3284 H   0  0  0  0  0  0  0  0  0  0  0  0
  1 20  1  0  0  0  0
  1  2  1  0  0  0  0
  1 11  2  0  0  0  0
  2  3  1  0  0  0  0
  2  8  2  0  0  0  0
  3  4  2  0  0  0  0
  3  5  1  0  0  0  0
  5  6  1  0  0  0  0
 12  5  1  0  0  0  0
  6  7  2  0  0  0  0
  6  8  1  0  0  0  0
  8  9  1  0  0  0  0
  9 21  1  0  0  0  0
  9 10  2  0  0  0  0
 10 22  1  0  0  0  0
 10 11  1  0  0  0  0
 11 23  1  0  0  0  0
 12 24  1  0  0  0  0
 12 13  1  0  0  0  0
 12 19  1  0  0  0  0
 13 14  2  0  0  0  0
 13 15  1  0  0  0  0
 15 25  1  0  0  0  0
 15 16  1  0  0  0  0
 16 17  2  0  0  0  0
 16 18  1  0  0  0  0
 18 26  1  0  0  0  0
 18 27  1  0  0  0  0
 18 19  1  0  0  0  0
 19 28  1  0  0  0  0
 19 29  1  0  0  0  0
M  ZZC   1 c1
M  ZZC   2 c2
M  ZZC   3 c3
M  ZZC   4 o1
M  ZZC   5 n1
M  ZZC   6 c4
M  ZZC   7 o2
M  ZZC   8 c5
M  ZZC   9 c6
M  ZZC  10 c7
M  ZZC  11 c8
M  ZZC  12 c9
M  ZZC  13 c10
M  ZZC  14 o3
M  ZZC  15 n2
M  ZZC  16 c11
M  ZZC  17 o4
M  ZZC  18 c12
M  ZZC  19 c13
M  ZZC  20 h11
M  ZZC  21 h61
M  ZZC  22 h71
M  ZZC  23 h81
M  ZZC  24 h91
M  ZZC  25 h21
M  ZZC  26 h121
M  ZZC  27 h122
M  ZZC  28 h131
M  ZZC  29 h132
M  ZZM   1 37
M  ZZI   1 125
M  ZZM   2 37
M  ZZI   2 124
M  ZZM   3 3
M  ZZI   3 121
M  ZZM   4 7
M  ZZI   4 81
M  ZZM   5 10
M  ZZI   5 192
M  ZZM   6 3
M  ZZI   6 121
M  ZZM   7 7
M  ZZI   7 81
M  ZZM   8 37
M  ZZI   8 124
M  ZZM   9 37
M  ZZI   9 125
M  ZZM  10 37
M  ZZI  10 125
M  ZZM  11 37
M  ZZI  11 125
M  ZZM  12 1
M  ZZI  12 113
M  ZZM  13 3
M  ZZI  13 121
M  ZZM  14 7
M  ZZI  14 81
M  ZZM  15 10
M  ZZI  15 191
M  ZZM  16 3
M  ZZI  16 121
M  ZZM  17 7
M  ZZI  17 81
M  ZZM  18 1
M  ZZI  18 112
M  ZZM  19 1
M  ZZI  19 112
M  ZZM  20 5
M  ZZI  20 1
M  ZZM  21 5
M  ZZI  21 1
M  ZZM  22 5
M  ZZI  22 1
M  ZZM  23 5
M  ZZI  23 1
M  ZZM  24 5
M  ZZI  24 1
M  ZZM  25 28
M  ZZI  25 11
M  ZZM  26 5
M  ZZI  26 1
M  ZZM  27 5
M  ZZI  27 1
M  ZZM  28 5
M  ZZI  28 1
M  ZZM  29 5
M  ZZI  29 1
M  END
> <IX>
1

> <NAME>
Cereblon_4XUF_6.pdb

> <Score>
-14.615462

> <Natom>
29

> <Nflex>
1

> <Hbond>
-3.640775

> <Hphob>
-3.494699

> <VwInt>
-20.649249

> <Dsolv>
13.094777

> <SolEl>
9.947964

> <Eintl>
0.999429

> <RecConf>
ND

> <projPath>
Cereblon_maps/

> <NAME_>
Cereblon_4XUF_6.pdb

$$$$
