Cereblon_2GQG_25.pdb
  MOLSOFT 04032206193D

 29 31  0  0  1  0  0  0  0  0999 V2000
   79.0047   42.4918   42.6719 C   0  0  0  0  0  0  0  0  0  0  0  0
   78.1863   42.1962   41.5961 C   0  0  0  0  0  0  0  0  0  0  0  0
   77.2679   41.0786   41.4112 C   0  0  0  0  0  0  0  0  0  0  0  0
   77.0874   40.2188   42.2598 O   0  0  0  0  0  0  0  0  0  0  0  0
   76.7275   41.2203   40.1463 N   0  0  0  0  0  0  0  0  0  0  0  0
   77.2235   42.3473   39.5229 C   0  0  0  0  0  0  0  0  0  0  0  0
   76.9871   42.7652   38.3967 O   0  0  0  0  0  0  0  0  0  0  0  0
   78.1588   42.9589   40.4673 C   0  0  0  0  0  0  0  0  0  0  0  0
   78.9578   44.0748   40.3246 C   0  0  0  0  0  0  0  0  0  0  0  0
   79.8001   44.3850   41.3864 C   0  0  0  0  0  0  0  0  0  0  0  0
   79.8236   43.6073   42.5447 C   0  0  0  0  0  0  0  0  0  0  0  0
   75.7189   40.3656   39.5138 C   0  0  2  0  0  0  0  0  0  0  0  0
   74.3387   40.9338   39.8032 C   0  0  0  0  0  0  0  0  0  0  0  0
   74.1519   42.1201   40.0173 O   0  0  0  0  0  0  0  0  0  0  0  0
   73.2885   40.0517   39.7271 N   0  0  0  0  0  0  0  0  0  0  0  0
   73.3269   38.7063   39.4540 C   0  0  0  0  0  0  0  0  0  0  0  0
   72.3110   38.0333   39.3938 O   0  0  0  0  0  0  0  0  0  0  0  0
   74.6918   38.1247   39.1788 C   0  0  0  0  0  0  0  0  0  0  0  0
   75.7737   38.8950   39.9153 C   0  0  0  0  0  0  0  0  0  0  0  0
   79.0168   41.8771   43.5676 H   0  0  0  0  0  0  0  0  0  0  0  0
   78.9266   44.6761   39.4236 H   0  0  0  0  0  0  0  0  0  0  0  0
   80.4481   45.2510   41.3168 H   0  0  0  0  0  0  0  0  0  0  0  0
   80.4911   43.8764   43.3585 H   0  0  0  0  0  0  0  0  0  0  0  0
   75.8578   40.4533   38.4344 H   0  0  0  0  0  0  0  0  0  0  0  0
   72.3701   40.4456   39.8895 H   0  0  0  0  0  0  0  0  0  0  0  0
   74.6982   37.0794   39.5037 H   0  0  0  0  0  0  0  0  0  0  0  0
   74.8535   38.1450   38.0967 H   0  0  0  0  0  0  0  0  0  0  0  0
   76.7591   38.4736   39.6919 H   0  0  0  0  0  0  0  0  0  0  0  0
   75.6114   38.7756   40.9901 H   0  0  0  0  0  0  0  0  0  0  0  0
  1 20  1  0  0  0  0
  1  2  1  0  0  0  0
  1 11  2  0  0  0  0
  2  3  1  0  0  0  0
  2  8  2  0  0  0  0
  3  4  2  0  0  0  0
  3  5  1  0  0  0  0
  5  6  1  0  0  0  0
 12  5  1  0  0  0  0
  6  7  2  0  0  0  0
  6  8  1  0  0  0  0
  8  9  1  0  0  0  0
  9 21  1  0  0  0  0
  9 10  2  0  0  0  0
 10 22  1  0  0  0  0
 10 11  1  0  0  0  0
 11 23  1  0  0  0  0
 12 24  1  0  0  0  0
 12 13  1  0  0  0  0
 12 19  1  0  0  0  0
 13 14  2  0  0  0  0
 13 15  1  0  0  0  0
 15 25  1  0  0  0  0
 15 16  1  0  0  0  0
 16 17  2  0  0  0  0
 16 18  1  0  0  0  0
 18 26  1  0  0  0  0
 18 27  1  0  0  0  0
 18 19  1  0  0  0  0
 19 28  1  0  0  0  0
 19 29  1  0  0  0  0
M  ZZC   1 c1
M  ZZC   2 c2
M  ZZC   3 c3
M  ZZC   4 o1
M  ZZC   5 n1
M  ZZC   6 c4
M  ZZC   7 o2
M  ZZC   8 c5
M  ZZC   9 c6
M  ZZC  10 c7
M  ZZC  11 c8
M  ZZC  12 c9
M  ZZC  13 c10
M  ZZC  14 o3
M  ZZC  15 n2
M  ZZC  16 c11
M  ZZC  17 o4
M  ZZC  18 c12
M  ZZC  19 c13
M  ZZC  20 h11
M  ZZC  21 h61
M  ZZC  22 h71
M  ZZC  23 h81
M  ZZC  24 h91
M  ZZC  25 h21
M  ZZC  26 h121
M  ZZC  27 h122
M  ZZC  28 h131
M  ZZC  29 h132
M  ZZM   1 37
M  ZZI   1 125
M  ZZM   2 37
M  ZZI   2 124
M  ZZM   3 3
M  ZZI   3 121
M  ZZM   4 7
M  ZZI   4 81
M  ZZM   5 10
M  ZZI   5 192
M  ZZM   6 3
M  ZZI   6 121
M  ZZM   7 7
M  ZZI   7 81
M  ZZM   8 37
M  ZZI   8 124
M  ZZM   9 37
M  ZZI   9 125
M  ZZM  10 37
M  ZZI  10 125
M  ZZM  11 37
M  ZZI  11 125
M  ZZM  12 1
M  ZZI  12 113
M  ZZM  13 3
M  ZZI  13 121
M  ZZM  14 7
M  ZZI  14 81
M  ZZM  15 10
M  ZZI  15 191
M  ZZM  16 3
M  ZZI  16 121
M  ZZM  17 7
M  ZZI  17 81
M  ZZM  18 1
M  ZZI  18 112
M  ZZM  19 1
M  ZZI  19 112
M  ZZM  20 5
M  ZZI  20 1
M  ZZM  21 5
M  ZZI  21 1
M  ZZM  22 5
M  ZZI  22 1
M  ZZM  23 5
M  ZZI  23 1
M  ZZM  24 5
M  ZZI  24 1
M  ZZM  25 28
M  ZZI  25 11
M  ZZM  26 5
M  ZZI  26 1
M  ZZM  27 5
M  ZZI  27 1
M  ZZM  28 5
M  ZZI  28 1
M  ZZM  29 5
M  ZZI  29 1
M  END
> <IX>
1

> <NAME>
Cereblon_2GQG_25.pdb

> <Score>
-19.369527

> <Natom>
29

> <Nflex>
1

> <Hbond>
-3.369653

> <Hphob>
-3.545724

> <VwInt>
-22.690896

> <Dsolv>
12.045484

> <SolEl>
5.609048

> <Eintl>
1.476904

> <RecConf>
ND

> <projPath>
Cereblon_maps/

> <NAME_>
Cereblon_2GQG_25.pdb

$$$$
