Cereblon_5EDU_2.pdb
  MOLSOFT 04032206243D

 31 33  0  0  1  0  0  0  0  0999 V2000
   76.7307   41.9914   40.4774 N   0  0  0  0  0  0  0  0  0  0  0  0
   76.3215   40.6820   40.1814 C   0  0  0  0  0  0  0  0  0  0  0  0
   75.2235   40.4152   39.3825 C   0  0  0  0  0  0  0  0  0  0  0  0
   74.3441   41.3474   38.6878 C   0  0  0  0  0  0  0  0  0  0  0  0
   74.4016   42.5568   38.8524 O   0  0  0  0  0  0  0  0  0  0  0  0
   73.4815   40.5818   37.9257 N   0  0  0  0  0  0  0  0  0  0  0  0
   73.6919   39.2377   38.1633 C   0  0  0  0  0  0  0  0  0  0  0  0
   73.1000   38.2668   37.7145 O   0  0  0  0  0  0  0  0  0  0  0  0
   74.8115   39.1508   39.0992 C   0  0  0  0  0  0  0  0  0  0  0  0
   75.4269   38.0408   39.6467 C   0  0  0  0  0  0  0  0  0  0  0  0
   76.4944   38.2785   40.5042 C   0  0  0  0  0  0  0  0  0  0  0  0
   76.9268   39.5778   40.7733 C   0  0  0  0  0  0  0  0  0  0  0  0
   72.3976   41.0779   37.0654 C   0  0  1  0  0  0  0  0  0  0  0  0
   71.1524   41.3406   37.9065 C   0  0  0  0  0  0  0  0  0  0  0  0
   70.8912   40.7234   38.9286 O   0  0  0  0  0  0  0  0  0  0  0  0
   70.2680   42.2636   37.3990 N   0  0  0  0  0  0  0  0  0  0  0  0
   70.3869   43.0467   36.2824 C   0  0  0  0  0  0  0  0  0  0  0  0
   69.5664   43.9149   36.0301 O   0  0  0  0  0  0  0  0  0  0  0  0
   71.5720   42.7453   35.4010 C   0  0  0  0  0  0  0  0  0  0  0  0
   72.7631   42.3123   36.2403 C   0  0  0  0  0  0  0  0  0  0  0  0
   77.6681   42.1227   40.8521 H   0  0  0  0  0  0  0  0  0  0  0  0
   76.3428   42.7500   39.9164 H   0  0  0  0  0  0  0  0  0  0  0  0
   75.0915   37.0328   39.4211 H   0  0  0  0  0  0  0  0  0  0  0  0
   77.0034   37.4399   40.9696 H   0  0  0  0  0  0  0  0  0  0  0  0
   77.7609   39.7270   41.4515 H   0  0  0  0  0  0  0  0  0  0  0  0
   72.1277   40.2649   36.3812 H   0  0  0  0  0  0  0  0  0  0  0  0
   69.4405   42.4345   37.9515 H   0  0  0  0  0  0  0  0  0  0  0  0
   71.2852   41.9668   34.6860 H   0  0  0  0  0  0  0  0  0  0  0  0
   71.8199   43.6484   34.8383 H   0  0  0  0  0  0  0  0  0  0  0  0
   73.6201   42.0951   35.5949 H   0  0  0  0  0  0  0  0  0  0  0  0
   73.0567   43.1471   36.8840 H   0  0  0  0  0  0  0  0  0  0  0  0
  1  2  1  0  0  0  0
  1 21  1  0  0  0  0
  1 22  1  0  0  0  0
  2  3  1  0  0  0  0
  2 12  2  0  0  0  0
  3  9  2  0  0  0  0
  3  4  1  0  0  0  0
  4  5  2  0  0  0  0
  4  6  1  0  0  0  0
  6  7  1  0  0  0  0
 13  6  1  0  0  0  0
  7  8  2  0  0  0  0
  7  9  1  0  0  0  0
  9 10  1  0  0  0  0
 10 23  1  0  0  0  0
 10 11  2  0  0  0  0
 11 12  1  0  0  0  0
 11 24  1  0  0  0  0
 12 25  1  0  0  0  0
 13 26  1  0  0  0  0
 13 14  1  0  0  0  0
 13 20  1  0  0  0  0
 14 15  2  0  0  0  0
 14 16  1  0  0  0  0
 16 27  1  0  0  0  0
 16 17  1  0  0  0  0
 17 18  2  0  0  0  0
 17 19  1  0  0  0  0
 19 28  1  0  0  0  0
 19 29  1  0  0  0  0
 19 20  1  0  0  0  0
 20 30  1  0  0  0  0
 20 31  1  0  0  0  0
M  ZZC   1 n1
M  ZZC   2 c1
M  ZZC   3 c2
M  ZZC   4 c3
M  ZZC   5 o1
M  ZZC   6 n2
M  ZZC   7 c4
M  ZZC   8 o2
M  ZZC   9 c5
M  ZZC  10 c6
M  ZZC  11 c7
M  ZZC  12 c8
M  ZZC  13 c9
M  ZZC  14 c10
M  ZZC  15 o3
M  ZZC  16 n3
M  ZZC  17 c11
M  ZZC  18 o4
M  ZZC  19 c12
M  ZZC  20 c13
M  ZZC  21 h11
M  ZZC  22 h12
M  ZZC  23 h61
M  ZZC  24 h71
M  ZZC  25 h81
M  ZZC  26 h91
M  ZZC  27 h31
M  ZZC  28 h121
M  ZZC  29 h122
M  ZZC  30 h131
M  ZZC  31 h132
M  ZZM   1 40
M  ZZI   1 224
M  ZZM   2 37
M  ZZI   2 124
M  ZZM   3 37
M  ZZI   3 124
M  ZZM   4 3
M  ZZI   4 121
M  ZZM   5 7
M  ZZI   5 81
M  ZZM   6 10
M  ZZI   6 192
M  ZZM   7 3
M  ZZI   7 121
M  ZZM   8 7
M  ZZI   8 81
M  ZZM   9 37
M  ZZI   9 124
M  ZZM  10 37
M  ZZI  10 125
M  ZZM  11 37
M  ZZI  11 125
M  ZZM  12 37
M  ZZI  12 125
M  ZZM  13 1
M  ZZI  13 113
M  ZZM  14 3
M  ZZI  14 121
M  ZZM  15 7
M  ZZI  15 81
M  ZZM  16 10
M  ZZI  16 191
M  ZZM  17 3
M  ZZI  17 121
M  ZZM  18 7
M  ZZI  18 81
M  ZZM  19 1
M  ZZI  19 112
M  ZZM  20 1
M  ZZI  20 112
M  ZZM  21 28
M  ZZI  21 11
M  ZZM  22 28
M  ZZI  22 11
M  ZZM  23 5
M  ZZI  23 1
M  ZZM  24 5
M  ZZI  24 1
M  ZZM  25 5
M  ZZI  25 1
M  ZZM  26 5
M  ZZI  26 1
M  ZZM  27 28
M  ZZI  27 11
M  ZZM  28 5
M  ZZI  28 1
M  ZZM  29 5
M  ZZI  29 1
M  ZZM  30 5
M  ZZI  30 1
M  ZZM  31 5
M  ZZI  31 1
M  END
> <IX>
1

> <NAME>
Cereblon_5EDU_2.pdb

> <Score>
-19.415729

> <Natom>
31

> <Nflex>
1

> <Hbond>
-4.799806

> <Hphob>
-3.489325

> <VwInt>
-25.378134

> <Dsolv>
15.985908

> <SolEl>
10.646347

> <Eintl>
1.37957

> <RecConf>
ND

> <projPath>
Cereblon_maps/

> <NAME_>
Cereblon_5EDU_2.pdb

$$$$
