Cereblon_5VBP_23.pdb
  MOLSOFT 04032206273D

 31 33  0  0  1  0  0  0  0  0999 V2000
   71.0427   40.6138   38.9827 O   0  0  0  0  0  0  0  0  0  0  0  0
   71.3624   41.2705   38.0025 C   0  0  0  0  0  0  0  0  0  0  0  0
   72.6734   41.0666   37.2502 C   0  0  2  0  0  0  0  0  0  0  0  0
   73.6988   40.5270   38.1562 N   0  0  0  0  0  0  0  0  0  0  0  0
   73.9594   39.1755   38.2673 C   0  0  0  0  0  0  0  0  0  0  0  0
   73.4417   38.2376   37.6771 O   0  0  0  0  0  0  0  0  0  0  0  0
   75.0164   39.0334   39.2687 C   0  0  0  0  0  0  0  0  0  0  0  0
   75.6520   37.8912   39.7302 C   0  0  0  0  0  0  0  0  0  0  0  0
   75.3846   36.6199   39.1977 N   0  0  0  0  0  0  0  0  0  0  0  0
   76.6737   38.0917   40.6554 C   0  0  0  0  0  0  0  0  0  0  0  0
   76.9962   39.3646   41.1271 C   0  0  0  0  0  0  0  0  0  0  0  0
   76.3199   40.4865   40.6695 C   0  0  0  0  0  0  0  0  0  0  0  0
   75.3279   40.2743   39.7308 C   0  0  0  0  0  0  0  0  0  0  0  0
   74.4591   41.2397   39.0659 C   0  0  0  0  0  0  0  0  0  0  0  0
   74.4514   42.4288   39.3441 O   0  0  0  0  0  0  0  0  0  0  0  0
   73.0898   42.3457   36.5281 C   0  0  0  0  0  0  0  0  0  0  0  0
   71.9664   42.8272   35.6234 C   0  0  0  0  0  0  0  0  0  0  0  0
   70.6924   43.0398   36.4020 C   0  0  0  0  0  0  0  0  0  0  0  0
   69.8712   43.8967   36.1128 O   0  0  0  0  0  0  0  0  0  0  0  0
   70.4959   42.1915   37.4598 N   0  0  0  0  0  0  0  0  0  0  0  0
   72.4672   40.2958   36.4985 H   0  0  0  0  0  0  0  0  0  0  0  0
   74.5537   36.5133   38.6132 H   0  0  0  0  0  0  0  0  0  0  0  0
   75.7396   35.7965   39.6786 H   0  0  0  0  0  0  0  0  0  0  0  0
   77.2374   37.2396   41.0209 H   0  0  0  0  0  0  0  0  0  0  0  0
   77.7932   39.4822   41.8555 H   0  0  0  0  0  0  0  0  0  0  0  0
   76.5756   41.4819   41.0198 H   0  0  0  0  0  0  0  0  0  0  0  0
   73.9953   42.1695   35.9389 H   0  0  0  0  0  0  0  0  0  0  0  0
   73.3325   43.1383   37.2409 H   0  0  0  0  0  0  0  0  0  0  0  0
   72.2456   43.7791   35.1676 H   0  0  0  0  0  0  0  0  0  0  0  0
   71.7673   42.1081   34.8215 H   0  0  0  0  0  0  0  0  0  0  0  0
   69.6234   42.3210   37.9507 H   0  0  0  0  0  0  0  0  0  0  0  0
  1  2  2  0  0  0  0
  3  2  1  0  0  0  0
  2 20  1  0  0  0  0
  3  4  1  0  0  0  0
  3 21  1  0  0  0  0
  3 16  1  0  0  0  0
  4  5  1  0  0  0  0
  4 14  1  0  0  0  0
  5  7  1  0  0  0  0
  5  6  2  0  0  0  0
  7  8  1  0  0  0  0
  7 13  2  0  0  0  0
  8 10  2  0  0  0  0
  8  9  1  0  0  0  0
  9 22  1  0  0  0  0
  9 23  1  0  0  0  0
 10 24  1  0  0  0  0
 10 11  1  0  0  0  0
 11 12  2  0  0  0  0
 11 25  1  0  0  0  0
 12 13  1  0  0  0  0
 12 26  1  0  0  0  0
 13 14  1  0  0  0  0
 14 15  2  0  0  0  0
 16 17  1  0  0  0  0
 16 27  1  0  0  0  0
 16 28  1  0  0  0  0
 17 18  1  0  0  0  0
 17 29  1  0  0  0  0
 17 30  1  0  0  0  0
 18 20  1  0  0  0  0
 18 19  2  0  0  0  0
 20 31  1  0  0  0  0
M  ZZC   1 o1
M  ZZC   2 c1
M  ZZC   3 c2
M  ZZC   4 n1
M  ZZC   5 c3
M  ZZC   6 o2
M  ZZC   7 c4
M  ZZC   8 c5
M  ZZC   9 n2
M  ZZC  10 c6
M  ZZC  11 c7
M  ZZC  12 c8
M  ZZC  13 c9
M  ZZC  14 c10
M  ZZC  15 o3
M  ZZC  16 c11
M  ZZC  17 c12
M  ZZC  18 c13
M  ZZC  19 o4
M  ZZC  20 n3
M  ZZC  21 h21
M  ZZC  22 h01
M  ZZC  23 h22
M  ZZC  24 h61
M  ZZC  25 h71
M  ZZC  26 h81
M  ZZC  27 h111
M  ZZC  28 h112
M  ZZC  29 h121
M  ZZC  30 h122
M  ZZC  31 h31
M  ZZM   1 7
M  ZZI   1 81
M  ZZM   2 3
M  ZZI   2 121
M  ZZM   3 1
M  ZZI   3 113
M  ZZM   4 10
M  ZZI   4 192
M  ZZM   5 3
M  ZZI   5 121
M  ZZM   6 7
M  ZZI   6 81
M  ZZM   7 37
M  ZZI   7 124
M  ZZM   8 37
M  ZZI   8 124
M  ZZM   9 40
M  ZZI   9 224
M  ZZM  10 37
M  ZZI  10 125
M  ZZM  11 37
M  ZZI  11 125
M  ZZM  12 37
M  ZZI  12 125
M  ZZM  13 37
M  ZZI  13 124
M  ZZM  14 3
M  ZZI  14 121
M  ZZM  15 7
M  ZZI  15 81
M  ZZM  16 1
M  ZZI  16 112
M  ZZM  17 1
M  ZZI  17 112
M  ZZM  18 3
M  ZZI  18 121
M  ZZM  19 7
M  ZZI  19 81
M  ZZM  20 10
M  ZZI  20 191
M  ZZM  21 5
M  ZZI  21 1
M  ZZM  22 28
M  ZZI  22 11
M  ZZM  23 28
M  ZZI  23 11
M  ZZM  24 5
M  ZZI  24 1
M  ZZM  25 5
M  ZZI  25 1
M  ZZM  26 5
M  ZZI  26 1
M  ZZM  27 5
M  ZZI  27 1
M  ZZM  28 5
M  ZZI  28 1
M  ZZM  29 5
M  ZZI  29 1
M  ZZM  30 5
M  ZZI  30 1
M  ZZM  31 28
M  ZZI  31 11
M  END
> <IX>
1

> <NAME>
Cereblon_5VBP_23.pdb

> <Score>
-20.494467

> <Natom>
31

> <Nflex>
1

> <Hbond>
-4.558782

> <Hphob>
-3.556751

> <VwInt>
-22.696252

> <Dsolv>
13.625392

> <SolEl>
7.604977

> <Eintl>
0.466996

> <RecConf>
ND

> <projPath>
Cereblon_maps/

> <NAME_>
Cereblon_5VBP_23.pdb

$$$$
