Cereblon_2WXL_1.pdb
  MOLSOFT 04032206203D

 29 31  0  0  1  0  0  0  0  0999 V2000
   76.1909   57.6655   23.8009 C   0  0  0  0  0  0  0  0  0  0  0  0
   77.4651   57.3971   23.3360 C   0  0  0  0  0  0  0  0  0  0  0  0
   77.9111   56.9986   22.0035 C   0  0  0  0  0  0  0  0  0  0  0  0
   77.1676   56.8562   21.0443 O   0  0  0  0  0  0  0  0  0  0  0  0
   79.2805   56.8519   22.0743 N   0  0  0  0  0  0  0  0  0  0  0  0
   79.7391   57.1550   23.3445 C   0  0  0  0  0  0  0  0  0  0  0  0
   80.8743   57.1776   23.7972 O   0  0  0  0  0  0  0  0  0  0  0  0
   78.5619   57.5013   24.1349 C   0  0  0  0  0  0  0  0  0  0  0  0
   78.4770   57.9012   25.4549 C   0  0  0  0  0  0  0  0  0  0  0  0
   77.2099   58.2053   25.9337 C   0  0  0  0  0  0  0  0  0  0  0  0
   76.0807   58.0785   25.1228 C   0  0  0  0  0  0  0  0  0  0  0  0
   80.0841   56.3771   20.9402 C   0  0  2  0  0  0  0  0  0  0  0  0
   80.1988   54.8544   20.9975 C   0  0  0  0  0  0  0  0  0  0  0  0
   79.3437   54.1375   21.4956 O   0  0  0  0  0  0  0  0  0  0  0  0
   81.3093   54.3060   20.3961 N   0  0  0  0  0  0  0  0  0  0  0  0
   82.4183   54.9640   19.9276 C   0  0  0  0  0  0  0  0  0  0  0  0
   83.4796   54.3911   19.7465 O   0  0  0  0  0  0  0  0  0  0  0  0
   82.2417   56.4397   19.6908 C   0  0  0  0  0  0  0  0  0  0  0  0
   81.4605   57.0355   20.8437 C   0  0  0  0  0  0  0  0  0  0  0  0
   75.3190   57.5766   23.1612 H   0  0  0  0  0  0  0  0  0  0  0  0
   79.3569   57.9892   26.0849 H   0  0  0  0  0  0  0  0  0  0  0  0
   77.1022   58.5553   26.9550 H   0  0  0  0  0  0  0  0  0  0  0  0
   75.1009   58.3177   25.5244 H   0  0  0  0  0  0  0  0  0  0  0  0
   79.5211   56.5955   20.0254 H   0  0  0  0  0  0  0  0  0  0  0  0
   81.3803   53.2982   20.4430 H   0  0  0  0  0  0  0  0  0  0  0  0
   83.2293   56.9081   19.6235 H   0  0  0  0  0  0  0  0  0  0  0  0
   81.7270   56.5860   18.7351 H   0  0  0  0  0  0  0  0  0  0  0  0
   81.3558   58.1172   20.7103 H   0  0  0  0  0  0  0  0  0  0  0  0
   82.0378   56.8825   21.7604 H   0  0  0  0  0  0  0  0  0  0  0  0
  1 20  1  0  0  0  0
  1  2  1  0  0  0  0
  1 11  2  0  0  0  0
  2  3  1  0  0  0  0
  2  8  2  0  0  0  0
  3  4  2  0  0  0  0
  3  5  1  0  0  0  0
  5  6  1  0  0  0  0
 12  5  1  0  0  0  0
  6  7  2  0  0  0  0
  6  8  1  0  0  0  0
  8  9  1  0  0  0  0
  9 21  1  0  0  0  0
  9 10  2  0  0  0  0
 10 22  1  0  0  0  0
 10 11  1  0  0  0  0
 11 23  1  0  0  0  0
 12 24  1  0  0  0  0
 12 13  1  0  0  0  0
 12 19  1  0  0  0  0
 13 14  2  0  0  0  0
 13 15  1  0  0  0  0
 15 25  1  0  0  0  0
 15 16  1  0  0  0  0
 16 17  2  0  0  0  0
 16 18  1  0  0  0  0
 18 26  1  0  0  0  0
 18 27  1  0  0  0  0
 18 19  1  0  0  0  0
 19 28  1  0  0  0  0
 19 29  1  0  0  0  0
M  ZZC   1 c1
M  ZZC   2 c2
M  ZZC   3 c3
M  ZZC   4 o1
M  ZZC   5 n1
M  ZZC   6 c4
M  ZZC   7 o2
M  ZZC   8 c5
M  ZZC   9 c6
M  ZZC  10 c7
M  ZZC  11 c8
M  ZZC  12 c9
M  ZZC  13 c10
M  ZZC  14 o3
M  ZZC  15 n2
M  ZZC  16 c11
M  ZZC  17 o4
M  ZZC  18 c12
M  ZZC  19 c13
M  ZZC  20 h11
M  ZZC  21 h61
M  ZZC  22 h71
M  ZZC  23 h81
M  ZZC  24 h91
M  ZZC  25 h21
M  ZZC  26 h121
M  ZZC  27 h122
M  ZZC  28 h131
M  ZZC  29 h132
M  ZZM   1 37
M  ZZI   1 125
M  ZZM   2 37
M  ZZI   2 124
M  ZZM   3 3
M  ZZI   3 121
M  ZZM   4 7
M  ZZI   4 81
M  ZZM   5 10
M  ZZI   5 192
M  ZZM   6 3
M  ZZI   6 121
M  ZZM   7 7
M  ZZI   7 81
M  ZZM   8 37
M  ZZI   8 124
M  ZZM   9 37
M  ZZI   9 125
M  ZZM  10 37
M  ZZI  10 125
M  ZZM  11 37
M  ZZI  11 125
M  ZZM  12 1
M  ZZI  12 113
M  ZZM  13 3
M  ZZI  13 121
M  ZZM  14 7
M  ZZI  14 81
M  ZZM  15 10
M  ZZI  15 191
M  ZZM  16 3
M  ZZI  16 121
M  ZZM  17 7
M  ZZI  17 81
M  ZZM  18 1
M  ZZI  18 112
M  ZZM  19 1
M  ZZI  19 112
M  ZZM  20 5
M  ZZI  20 1
M  ZZM  21 5
M  ZZI  21 1
M  ZZM  22 5
M  ZZI  22 1
M  ZZM  23 5
M  ZZI  23 1
M  ZZM  24 5
M  ZZI  24 1
M  ZZM  25 28
M  ZZI  25 11
M  ZZM  26 5
M  ZZI  26 1
M  ZZM  27 5
M  ZZI  27 1
M  ZZM  28 5
M  ZZI  28 1
M  ZZM  29 5
M  ZZI  29 1
M  END
> <IX>
1

> <NAME>
Cereblon_2WXL_1.pdb

> <Score>
-12.135235

> <Natom>
29

> <Nflex>
1

> <Hbond>
-1.85298

> <Hphob>
-2.938324

> <VwInt>
-24.16527

> <Dsolv>
13.193567

> <SolEl>
10.372504

> <Eintl>
2.242872

> <RecConf>
ND

> <projPath>
Cereblon_maps/

> <NAME_>
Cereblon_2WXL_1.pdb

$$$$
