Cereblon_3HLL_21.pdb
  MOLSOFT 04032206213D

 31 33  0  0  1  0  0  0  0  0999 V2000
   78.8165   41.6799   43.8081 N   0  0  0  0  0  0  0  0  0  0  0  0
   78.8974   42.4331   42.6269 C   0  0  0  0  0  0  0  0  0  0  0  0
   78.0954   42.1623   41.5314 C   0  0  0  0  0  0  0  0  0  0  0  0
   77.1743   41.0515   41.3268 C   0  0  0  0  0  0  0  0  0  0  0  0
   76.9918   40.1699   42.1533 O   0  0  0  0  0  0  0  0  0  0  0  0
   76.6379   41.2137   40.0647 N   0  0  0  0  0  0  0  0  0  0  0  0
   77.1610   42.3317   39.4473 C   0  0  0  0  0  0  0  0  0  0  0  0
   76.9512   42.7490   38.3158 O   0  0  0  0  0  0  0  0  0  0  0  0
   78.0928   42.9296   40.4063 C   0  0  0  0  0  0  0  0  0  0  0  0
   78.9059   44.0375   40.2833 C   0  0  0  0  0  0  0  0  0  0  0  0
   79.7252   44.3371   41.3660 C   0  0  0  0  0  0  0  0  0  0  0  0
   79.7119   43.5567   42.5237 C   0  0  0  0  0  0  0  0  0  0  0  0
   75.6195   40.3753   39.4285 C   0  0  2  0  0  0  0  0  0  0  0  0
   74.2486   40.9559   39.7307 C   0  0  0  0  0  0  0  0  0  0  0  0
   74.0802   42.1357   39.9908 O   0  0  0  0  0  0  0  0  0  0  0  0
   73.1867   40.0933   39.6100 N   0  0  0  0  0  0  0  0  0  0  0  0
   73.2107   38.7557   39.2972 C   0  0  0  0  0  0  0  0  0  0  0  0
   72.1847   38.1059   39.1791 O   0  0  0  0  0  0  0  0  0  0  0  0
   74.5741   38.1517   39.0577 C   0  0  0  0  0  0  0  0  0  0  0  0
   75.6511   38.9022   39.8212 C   0  0  0  0  0  0  0  0  0  0  0  0
   79.5351   41.7779   44.5222 H   0  0  0  0  0  0  0  0  0  0  0  0
   78.2761   40.8132   43.7929 H   0  0  0  0  0  0  0  0  0  0  0  0
   78.8989   44.6431   39.3847 H   0  0  0  0  0  0  0  0  0  0  0  0
   80.3779   45.2016   41.3174 H   0  0  0  0  0  0  0  0  0  0  0  0
   80.3487   43.8353   43.3579 H   0  0  0  0  0  0  0  0  0  0  0  0
   75.7555   40.4734   38.3502 H   0  0  0  0  0  0  0  0  0  0  0  0
   72.2714   40.4974   39.7650 H   0  0  0  0  0  0  0  0  0  0  0  0
   74.5542   37.1062   39.3813 H   0  0  0  0  0  0  0  0  0  0  0  0
   74.7682   38.1691   37.9808 H   0  0  0  0  0  0  0  0  0  0  0  0
   75.4645   38.7768   40.8917 H   0  0  0  0  0  0  0  0  0  0  0  0
   76.6357   38.4701   39.6155 H   0  0  0  0  0  0  0  0  0  0  0  0
  1  2  1  0  0  0  0
  1 21  1  0  0  0  0
  1 22  1  0  0  0  0
  2  3  1  0  0  0  0
  2 12  2  0  0  0  0
  3  9  2  0  0  0  0
  3  4  1  0  0  0  0
  4  5  2  0  0  0  0
  4  6  1  0  0  0  0
  6  7  1  0  0  0  0
 13  6  1  0  0  0  0
  7  8  2  0  0  0  0
  7  9  1  0  0  0  0
  9 10  1  0  0  0  0
 10 23  1  0  0  0  0
 10 11  2  0  0  0  0
 11 12  1  0  0  0  0
 11 24  1  0  0  0  0
 12 25  1  0  0  0  0
 13 26  1  0  0  0  0
 13 14  1  0  0  0  0
 13 20  1  0  0  0  0
 14 15  2  0  0  0  0
 14 16  1  0  0  0  0
 16 27  1  0  0  0  0
 16 17  1  0  0  0  0
 17 18  2  0  0  0  0
 17 19  1  0  0  0  0
 19 28  1  0  0  0  0
 19 29  1  0  0  0  0
 19 20  1  0  0  0  0
 20 30  1  0  0  0  0
 20 31  1  0  0  0  0
M  ZZC   1 n1
M  ZZC   2 c1
M  ZZC   3 c2
M  ZZC   4 c3
M  ZZC   5 o1
M  ZZC   6 n2
M  ZZC   7 c4
M  ZZC   8 o2
M  ZZC   9 c5
M  ZZC  10 c6
M  ZZC  11 c7
M  ZZC  12 c8
M  ZZC  13 c9
M  ZZC  14 c10
M  ZZC  15 o3
M  ZZC  16 n3
M  ZZC  17 c11
M  ZZC  18 o4
M  ZZC  19 c12
M  ZZC  20 c13
M  ZZC  21 h11
M  ZZC  22 h12
M  ZZC  23 h61
M  ZZC  24 h71
M  ZZC  25 h81
M  ZZC  26 h91
M  ZZC  27 h31
M  ZZC  28 h121
M  ZZC  29 h122
M  ZZC  30 h131
M  ZZC  31 h132
M  ZZM   1 40
M  ZZI   1 224
M  ZZM   2 37
M  ZZI   2 124
M  ZZM   3 37
M  ZZI   3 124
M  ZZM   4 3
M  ZZI   4 121
M  ZZM   5 7
M  ZZI   5 81
M  ZZM   6 10
M  ZZI   6 192
M  ZZM   7 3
M  ZZI   7 121
M  ZZM   8 7
M  ZZI   8 81
M  ZZM   9 37
M  ZZI   9 124
M  ZZM  10 37
M  ZZI  10 125
M  ZZM  11 37
M  ZZI  11 125
M  ZZM  12 37
M  ZZI  12 125
M  ZZM  13 1
M  ZZI  13 113
M  ZZM  14 3
M  ZZI  14 121
M  ZZM  15 7
M  ZZI  15 81
M  ZZM  16 10
M  ZZI  16 191
M  ZZM  17 3
M  ZZI  17 121
M  ZZM  18 7
M  ZZI  18 81
M  ZZM  19 1
M  ZZI  19 112
M  ZZM  20 1
M  ZZI  20 112
M  ZZM  21 28
M  ZZI  21 11
M  ZZM  22 28
M  ZZI  22 11
M  ZZM  23 5
M  ZZI  23 1
M  ZZM  24 5
M  ZZI  24 1
M  ZZM  25 5
M  ZZI  25 1
M  ZZM  26 5
M  ZZI  26 1
M  ZZM  27 28
M  ZZI  27 11
M  ZZM  28 5
M  ZZI  28 1
M  ZZM  29 5
M  ZZI  29 1
M  ZZM  30 5
M  ZZI  30 1
M  ZZM  31 5
M  ZZI  31 1
M  END
> <IX>
1

> <NAME>
Cereblon_3HLL_21.pdb

> <Score>
-18.45536

> <Natom>
31

> <Nflex>
1

> <Hbond>
-3.689586

> <Hphob>
-3.557992

> <VwInt>
-24.280989

> <Dsolv>
15.268664

> <SolEl>
6.762315

> <Eintl>
1.715851

> <RecConf>
ND

> <projPath>
Cereblon_maps/

> <NAME_>
Cereblon_3HLL_21.pdb

$$$$
