Cereblon_5TRF_6.pdb
  MOLSOFT 04032206273D

 31 33  0  0  1  0  0  0  0  0999 V2000
   76.7313   41.9863   40.4795 N   0  0  0  0  0  0  0  0  0  0  0  0
   76.3212   40.6776   40.1822 C   0  0  0  0  0  0  0  0  0  0  0  0
   75.2229   40.4123   39.3831 C   0  0  0  0  0  0  0  0  0  0  0  0
   74.3439   41.3457   38.6893 C   0  0  0  0  0  0  0  0  0  0  0  0
   74.4022   42.5549   38.8552 O   0  0  0  0  0  0  0  0  0  0  0  0
   73.4812   40.5814   37.9261 N   0  0  0  0  0  0  0  0  0  0  0  0
   73.6908   39.2369   38.1624 C   0  0  0  0  0  0  0  0  0  0  0  0
   73.0985   38.2668   37.7125 O   0  0  0  0  0  0  0  0  0  0  0  0
   74.8102   39.1483   39.0984 C   0  0  0  0  0  0  0  0  0  0  0  0
   75.4246   38.0375   39.6451 C   0  0  0  0  0  0  0  0  0  0  0  0
   76.4924   38.2735   40.5026 C   0  0  0  0  0  0  0  0  0  0  0  0
   76.9257   39.5722   40.7728 C   0  0  0  0  0  0  0  0  0  0  0  0
   72.3978   41.0789   37.0662 C   0  0  1  0  0  0  0  0  0  0  0  0
   71.1525   41.3412   37.9070 C   0  0  0  0  0  0  0  0  0  0  0  0
   70.8911   40.7235   38.9288 O   0  0  0  0  0  0  0  0  0  0  0  0
   70.2680   42.2641   37.3994 N   0  0  0  0  0  0  0  0  0  0  0  0
   70.3873   43.0477   36.2832 C   0  0  0  0  0  0  0  0  0  0  0  0
   69.5660   43.9151   36.0303 O   0  0  0  0  0  0  0  0  0  0  0  0
   71.5738   42.7486   35.4030 C   0  0  0  0  0  0  0  0  0  0  0  0
   72.7640   42.3142   36.2428 C   0  0  0  0  0  0  0  0  0  0  0  0
   77.6693   42.1158   40.8536 H   0  0  0  0  0  0  0  0  0  0  0  0
   76.3446   42.7460   39.9193 H   0  0  0  0  0  0  0  0  0  0  0  0
   75.0880   37.0298   39.4196 H   0  0  0  0  0  0  0  0  0  0  0  0
   77.0009   37.4341   40.9668 H   0  0  0  0  0  0  0  0  0  0  0  0
   77.7603   39.7202   41.4509 H   0  0  0  0  0  0  0  0  0  0  0  0
   72.1278   40.2669   36.3808 H   0  0  0  0  0  0  0  0  0  0  0  0
   69.4402   42.4348   37.9515 H   0  0  0  0  0  0  0  0  0  0  0  0
   71.2890   41.9717   34.6854 H   0  0  0  0  0  0  0  0  0  0  0  0
   71.8226   43.6533   34.8434 H   0  0  0  0  0  0  0  0  0  0  0  0
   73.6218   42.0980   35.5981 H   0  0  0  0  0  0  0  0  0  0  0  0
   73.0570   43.1483   36.8877 H   0  0  0  0  0  0  0  0  0  0  0  0
  1  2  1  0  0  0  0
  1 21  1  0  0  0  0
  1 22  1  0  0  0  0
  2  3  1  0  0  0  0
  2 12  2  0  0  0  0
  3  9  2  0  0  0  0
  3  4  1  0  0  0  0
  4  5  2  0  0  0  0
  4  6  1  0  0  0  0
  6  7  1  0  0  0  0
 13  6  1  0  0  0  0
  7  8  2  0  0  0  0
  7  9  1  0  0  0  0
  9 10  1  0  0  0  0
 10 23  1  0  0  0  0
 10 11  2  0  0  0  0
 11 12  1  0  0  0  0
 11 24  1  0  0  0  0
 12 25  1  0  0  0  0
 13 26  1  0  0  0  0
 13 14  1  0  0  0  0
 13 20  1  0  0  0  0
 14 15  2  0  0  0  0
 14 16  1  0  0  0  0
 16 27  1  0  0  0  0
 16 17  1  0  0  0  0
 17 18  2  0  0  0  0
 17 19  1  0  0  0  0
 19 28  1  0  0  0  0
 19 29  1  0  0  0  0
 19 20  1  0  0  0  0
 20 30  1  0  0  0  0
 20 31  1  0  0  0  0
M  ZZC   1 n1
M  ZZC   2 c1
M  ZZC   3 c2
M  ZZC   4 c3
M  ZZC   5 o1
M  ZZC   6 n2
M  ZZC   7 c4
M  ZZC   8 o2
M  ZZC   9 c5
M  ZZC  10 c6
M  ZZC  11 c7
M  ZZC  12 c8
M  ZZC  13 c9
M  ZZC  14 c10
M  ZZC  15 o3
M  ZZC  16 n3
M  ZZC  17 c11
M  ZZC  18 o4
M  ZZC  19 c12
M  ZZC  20 c13
M  ZZC  21 h11
M  ZZC  22 h12
M  ZZC  23 h61
M  ZZC  24 h71
M  ZZC  25 h81
M  ZZC  26 h91
M  ZZC  27 h31
M  ZZC  28 h121
M  ZZC  29 h122
M  ZZC  30 h131
M  ZZC  31 h132
M  ZZM   1 40
M  ZZI   1 224
M  ZZM   2 37
M  ZZI   2 124
M  ZZM   3 37
M  ZZI   3 124
M  ZZM   4 3
M  ZZI   4 121
M  ZZM   5 7
M  ZZI   5 81
M  ZZM   6 10
M  ZZI   6 192
M  ZZM   7 3
M  ZZI   7 121
M  ZZM   8 7
M  ZZI   8 81
M  ZZM   9 37
M  ZZI   9 124
M  ZZM  10 37
M  ZZI  10 125
M  ZZM  11 37
M  ZZI  11 125
M  ZZM  12 37
M  ZZI  12 125
M  ZZM  13 1
M  ZZI  13 113
M  ZZM  14 3
M  ZZI  14 121
M  ZZM  15 7
M  ZZI  15 81
M  ZZM  16 10
M  ZZI  16 191
M  ZZM  17 3
M  ZZI  17 121
M  ZZM  18 7
M  ZZI  18 81
M  ZZM  19 1
M  ZZI  19 112
M  ZZM  20 1
M  ZZI  20 112
M  ZZM  21 28
M  ZZI  21 11
M  ZZM  22 28
M  ZZI  22 11
M  ZZM  23 5
M  ZZI  23 1
M  ZZM  24 5
M  ZZI  24 1
M  ZZM  25 5
M  ZZI  25 1
M  ZZM  26 5
M  ZZI  26 1
M  ZZM  27 28
M  ZZI  27 11
M  ZZM  28 5
M  ZZI  28 1
M  ZZM  29 5
M  ZZI  29 1
M  ZZM  30 5
M  ZZI  30 1
M  ZZM  31 5
M  ZZI  31 1
M  END
> <IX>
1

> <NAME>
Cereblon_5TRF_6.pdb

> <Score>
-19.107537

> <Natom>
31

> <Nflex>
1

> <Hbond>
-4.817258

> <Hphob>
-3.490023

> <VwInt>
-25.280034

> <Dsolv>
15.867379

> <SolEl>
11.167775

> <Eintl>
1.378682

> <RecConf>
ND

> <projPath>
Cereblon_maps/

> <NAME_>
Cereblon_5TRF_6.pdb

$$$$
