Cereblon_6VS3_16.pdb
  MOLSOFT 04032206293D

 29 31  0  0  1  0  0  0  0  0999 V2000
   79.8242   43.6082   42.5456 C   0  0  0  0  0  0  0  0  0  0  0  0
   79.0057   42.4922   42.6724 C   0  0  0  0  0  0  0  0  0  0  0  0
   78.1872   42.1967   41.5966 C   0  0  0  0  0  0  0  0  0  0  0  0
   77.2692   41.0791   41.4117 C   0  0  0  0  0  0  0  0  0  0  0  0
   77.0880   40.2197   42.2605 O   0  0  0  0  0  0  0  0  0  0  0  0
   76.7296   41.2201   40.1463 N   0  0  0  0  0  0  0  0  0  0  0  0
   77.2251   42.3474   39.5233 C   0  0  0  0  0  0  0  0  0  0  0  0
   76.9881   42.7657   38.3974 O   0  0  0  0  0  0  0  0  0  0  0  0
   78.1599   42.9592   40.4678 C   0  0  0  0  0  0  0  0  0  0  0  0
   78.9580   44.0761   40.3255 C   0  0  0  0  0  0  0  0  0  0  0  0
   79.8003   44.3862   41.3874 C   0  0  0  0  0  0  0  0  0  0  0  0
   75.7210   40.3651   39.5139 C   0  0  2  0  0  0  0  0  0  0  0  0
   74.3414   40.9348   39.8036 C   0  0  0  0  0  0  0  0  0  0  0  0
   74.1544   42.1213   40.0161 O   0  0  0  0  0  0  0  0  0  0  0  0
   73.2909   40.0531   39.7293 N   0  0  0  0  0  0  0  0  0  0  0  0
   73.3286   38.7068   39.4605 C   0  0  0  0  0  0  0  0  0  0  0  0
   72.3129   38.0329   39.4077 O   0  0  0  0  0  0  0  0  0  0  0  0
   74.6925   38.1254   39.1809 C   0  0  0  0  0  0  0  0  0  0  0  0
   75.7759   38.8951   39.9159 C   0  0  0  0  0  0  0  0  0  0  0  0
   80.4923   43.8771   43.3587 H   0  0  0  0  0  0  0  0  0  0  0  0
   79.0169   41.8772   43.5680 H   0  0  0  0  0  0  0  0  0  0  0  0
   78.9256   44.6780   39.4251 H   0  0  0  0  0  0  0  0  0  0  0  0
   80.4483   45.2522   41.3184 H   0  0  0  0  0  0  0  0  0  0  0  0
   75.8599   40.4527   38.4343 H   0  0  0  0  0  0  0  0  0  0  0  0
   72.3725   40.4468   39.8923 H   0  0  0  0  0  0  0  0  0  0  0  0
   74.7004   37.0796   39.5044 H   0  0  0  0  0  0  0  0  0  0  0  0
   74.8525   38.1465   38.0984 H   0  0  0  0  0  0  0  0  0  0  0  0
   76.7609   38.4737   39.6916 H   0  0  0  0  0  0  0  0  0  0  0  0
   75.6139   38.7757   40.9908 H   0  0  0  0  0  0  0  0  0  0  0  0
  1 20  1  0  0  0  0
  1  2  1  0  0  0  0
  1 11  2  0  0  0  0
  2 21  1  0  0  0  0
  2  3  2  0  0  0  0
  3  4  1  0  0  0  0
  3  9  1  0  0  0  0
  4  5  2  0  0  0  0
  4  6  1  0  0  0  0
  6  7  1  0  0  0  0
 12  6  1  0  0  0  0
  7  8  2  0  0  0  0
  7  9  1  0  0  0  0
  9 10  2  0  0  0  0
 10 22  1  0  0  0  0
 10 11  1  0  0  0  0
 11 23  1  0  0  0  0
 12 24  1  0  0  0  0
 12 13  1  0  0  0  0
 12 19  1  0  0  0  0
 13 14  2  0  0  0  0
 13 15  1  0  0  0  0
 15 25  1  0  0  0  0
 15 16  1  0  0  0  0
 16 17  2  0  0  0  0
 16 18  1  0  0  0  0
 18 26  1  0  0  0  0
 18 27  1  0  0  0  0
 18 19  1  0  0  0  0
 19 28  1  0  0  0  0
 19 29  1  0  0  0  0
M  ZZC   1 c1
M  ZZC   2 c2
M  ZZC   3 c3
M  ZZC   4 c4
M  ZZC   5 o1
M  ZZC   6 n1
M  ZZC   7 c5
M  ZZC   8 o2
M  ZZC   9 c6
M  ZZC  10 c7
M  ZZC  11 c8
M  ZZC  12 c9
M  ZZC  13 c10
M  ZZC  14 o3
M  ZZC  15 n2
M  ZZC  16 c11
M  ZZC  17 o4
M  ZZC  18 c12
M  ZZC  19 c13
M  ZZC  20 h11
M  ZZC  21 h21
M  ZZC  22 h71
M  ZZC  23 h81
M  ZZC  24 h91
M  ZZC  25 h01
M  ZZC  26 h121
M  ZZC  27 h122
M  ZZC  28 h131
M  ZZC  29 h132
M  ZZM   1 37
M  ZZI   1 125
M  ZZM   2 37
M  ZZI   2 125
M  ZZM   3 37
M  ZZI   3 124
M  ZZM   4 3
M  ZZI   4 121
M  ZZM   5 7
M  ZZI   5 81
M  ZZM   6 10
M  ZZI   6 192
M  ZZM   7 3
M  ZZI   7 121
M  ZZM   8 7
M  ZZI   8 81
M  ZZM   9 37
M  ZZI   9 124
M  ZZM  10 37
M  ZZI  10 125
M  ZZM  11 37
M  ZZI  11 125
M  ZZM  12 1
M  ZZI  12 113
M  ZZM  13 3
M  ZZI  13 121
M  ZZM  14 7
M  ZZI  14 81
M  ZZM  15 10
M  ZZI  15 191
M  ZZM  16 3
M  ZZI  16 121
M  ZZM  17 7
M  ZZI  17 81
M  ZZM  18 1
M  ZZI  18 112
M  ZZM  19 1
M  ZZI  19 112
M  ZZM  20 5
M  ZZI  20 1
M  ZZM  21 5
M  ZZI  21 1
M  ZZM  22 5
M  ZZI  22 1
M  ZZM  23 5
M  ZZI  23 1
M  ZZM  24 5
M  ZZI  24 1
M  ZZM  25 28
M  ZZI  25 11
M  ZZM  26 5
M  ZZI  26 1
M  ZZM  27 5
M  ZZI  27 1
M  ZZM  28 5
M  ZZI  28 1
M  ZZM  29 5
M  ZZI  29 1
M  END
> <IX>
1

> <NAME>
Cereblon_6VS3_16.pdb

> <Score>
-19.45277

> <Natom>
29

> <Nflex>
1

> <Hbond>
-3.356948

> <Hphob>
-3.52798

> <VwInt>
-22.726101

> <Dsolv>
11.978525

> <SolEl>
5.547345

> <Eintl>
1.475023

> <RecConf>
ND

> <projPath>
Cereblon_maps/

> <NAME_>
Cereblon_6VS3_16.pdb

$$$$
