Cereblon_2VTI_14.pdb
  MOLSOFT 04032206203D

 31 33  0  0  1  0  0  0  0  0999 V2000
   78.8122   41.6773   43.8185 N   0  0  0  0  0  0  0  0  0  0  0  0
   78.9060   42.4217   42.6321 C   0  0  0  0  0  0  0  0  0  0  0  0
   78.0994   42.1568   41.5381 C   0  0  0  0  0  0  0  0  0  0  0  0
   77.1787   41.0461   41.3306 C   0  0  0  0  0  0  0  0  0  0  0  0
   76.9973   40.1638   42.1565 O   0  0  0  0  0  0  0  0  0  0  0  0
   76.6450   41.2101   40.0678 N   0  0  0  0  0  0  0  0  0  0  0  0
   77.1659   42.3311   39.4543 C   0  0  0  0  0  0  0  0  0  0  0  0
   76.9528   42.7542   38.3254 O   0  0  0  0  0  0  0  0  0  0  0  0
   78.0969   42.9263   40.4143 C   0  0  0  0  0  0  0  0  0  0  0  0
   78.9076   44.0363   40.2937 C   0  0  0  0  0  0  0  0  0  0  0  0
   79.7232   44.3362   41.3786 C   0  0  0  0  0  0  0  0  0  0  0  0
   79.7106   43.5530   42.5344 C   0  0  0  0  0  0  0  0  0  0  0  0
   75.6250   40.3742   39.4309 C   0  0  2  0  0  0  0  0  0  0  0  0
   74.2537   40.9534   39.7347 C   0  0  0  0  0  0  0  0  0  0  0  0
   74.0838   42.1334   39.9930 O   0  0  0  0  0  0  0  0  0  0  0  0
   73.1924   40.0894   39.6177 N   0  0  0  0  0  0  0  0  0  0  0  0
   73.2168   38.7515   39.3059 C   0  0  0  0  0  0  0  0  0  0  0  0
   72.1915   38.0994   39.1958 O   0  0  0  0  0  0  0  0  0  0  0  0
   74.5798   38.1512   39.0560 C   0  0  0  0  0  0  0  0  0  0  0  0
   75.6574   38.8998   39.8203 C   0  0  0  0  0  0  0  0  0  0  0  0
   79.5527   41.7607   44.5115 H   0  0  0  0  0  0  0  0  0  0  0  0
   78.3225   40.7822   43.7753 H   0  0  0  0  0  0  0  0  0  0  0  0
   78.8998   44.6442   39.3968 H   0  0  0  0  0  0  0  0  0  0  0  0
   80.3708   45.2048   41.3340 H   0  0  0  0  0  0  0  0  0  0  0  0
   80.3422   43.8352   43.3712 H   0  0  0  0  0  0  0  0  0  0  0  0
   75.7604   40.4739   38.3526 H   0  0  0  0  0  0  0  0  0  0  0  0
   72.2771   40.4920   39.7770 H   0  0  0  0  0  0  0  0  0  0  0  0
   74.5620   37.1039   39.3745 H   0  0  0  0  0  0  0  0  0  0  0  0
   74.7692   38.1745   37.9786 H   0  0  0  0  0  0  0  0  0  0  0  0
   75.4711   38.7726   40.8906 H   0  0  0  0  0  0  0  0  0  0  0  0
   76.6420   38.4681   39.6136 H   0  0  0  0  0  0  0  0  0  0  0  0
  1  2  1  0  0  0  0
  1 21  1  0  0  0  0
  1 22  1  0  0  0  0
  2  3  1  0  0  0  0
  2 12  2  0  0  0  0
  3  9  2  0  0  0  0
  3  4  1  0  0  0  0
  4  5  2  0  0  0  0
  4  6  1  0  0  0  0
  6  7  1  0  0  0  0
 13  6  1  0  0  0  0
  7  8  2  0  0  0  0
  7  9  1  0  0  0  0
  9 10  1  0  0  0  0
 10 23  1  0  0  0  0
 10 11  2  0  0  0  0
 11 12  1  0  0  0  0
 11 24  1  0  0  0  0
 12 25  1  0  0  0  0
 13 26  1  0  0  0  0
 13 14  1  0  0  0  0
 13 20  1  0  0  0  0
 14 15  2  0  0  0  0
 14 16  1  0  0  0  0
 16 27  1  0  0  0  0
 16 17  1  0  0  0  0
 17 18  2  0  0  0  0
 17 19  1  0  0  0  0
 19 28  1  0  0  0  0
 19 29  1  0  0  0  0
 19 20  1  0  0  0  0
 20 30  1  0  0  0  0
 20 31  1  0  0  0  0
M  ZZC   1 n1
M  ZZC   2 c1
M  ZZC   3 c2
M  ZZC   4 c3
M  ZZC   5 o1
M  ZZC   6 n2
M  ZZC   7 c4
M  ZZC   8 o2
M  ZZC   9 c5
M  ZZC  10 c6
M  ZZC  11 c7
M  ZZC  12 c8
M  ZZC  13 c9
M  ZZC  14 c10
M  ZZC  15 o3
M  ZZC  16 n3
M  ZZC  17 c11
M  ZZC  18 o4
M  ZZC  19 c12
M  ZZC  20 c13
M  ZZC  21 h11
M  ZZC  22 h12
M  ZZC  23 h61
M  ZZC  24 h71
M  ZZC  25 h81
M  ZZC  26 h91
M  ZZC  27 h31
M  ZZC  28 h121
M  ZZC  29 h122
M  ZZC  30 h131
M  ZZC  31 h132
M  ZZM   1 40
M  ZZI   1 224
M  ZZM   2 37
M  ZZI   2 124
M  ZZM   3 37
M  ZZI   3 124
M  ZZM   4 3
M  ZZI   4 121
M  ZZM   5 7
M  ZZI   5 81
M  ZZM   6 10
M  ZZI   6 192
M  ZZM   7 3
M  ZZI   7 121
M  ZZM   8 7
M  ZZI   8 81
M  ZZM   9 37
M  ZZI   9 124
M  ZZM  10 37
M  ZZI  10 125
M  ZZM  11 37
M  ZZI  11 125
M  ZZM  12 37
M  ZZI  12 125
M  ZZM  13 1
M  ZZI  13 113
M  ZZM  14 3
M  ZZI  14 121
M  ZZM  15 7
M  ZZI  15 81
M  ZZM  16 10
M  ZZI  16 191
M  ZZM  17 3
M  ZZI  17 121
M  ZZM  18 7
M  ZZI  18 81
M  ZZM  19 1
M  ZZI  19 112
M  ZZM  20 1
M  ZZI  20 112
M  ZZM  21 28
M  ZZI  21 11
M  ZZM  22 28
M  ZZI  22 11
M  ZZM  23 5
M  ZZI  23 1
M  ZZM  24 5
M  ZZI  24 1
M  ZZM  25 5
M  ZZI  25 1
M  ZZM  26 5
M  ZZI  26 1
M  ZZM  27 28
M  ZZI  27 11
M  ZZM  28 5
M  ZZI  28 1
M  ZZM  29 5
M  ZZI  29 1
M  ZZM  30 5
M  ZZI  30 1
M  ZZM  31 5
M  ZZI  31 1
M  END
> <IX>
1

> <NAME>
Cereblon_2VTI_14.pdb

> <Score>
-18.357512

> <Natom>
31

> <Nflex>
1

> <Hbond>
-3.688146

> <Hphob>
-3.577581

> <VwInt>
-24.314855

> <Dsolv>
15.145787

> <SolEl>
7.140216

> <Eintl>
1.689081

> <RecConf>
ND

> <projPath>
Cereblon_maps/

> <NAME_>
Cereblon_2VTI_14.pdb

$$$$
