Cereblon_4QNQ_41.pdb
  MOLSOFT 04032206233D

 31 33  0  0  1  0  0  0  0  0999 V2000
   77.4463   41.9523   41.6687 N   0  0  0  0  0  0  0  0  0  0  0  0
   77.1510   40.6435   41.2571 C   0  0  0  0  0  0  0  0  0  0  0  0
   76.1624   40.3394   40.3276 C   0  0  0  0  0  0  0  0  0  0  0  0
   75.2447   41.2102   39.5829 C   0  0  0  0  0  0  0  0  0  0  0  0
   75.1725   42.4175   39.7534 O   0  0  0  0  0  0  0  0  0  0  0  0
   74.4973   40.3911   38.7604 N   0  0  0  0  0  0  0  0  0  0  0  0
   74.8180   39.0678   38.9709 C   0  0  0  0  0  0  0  0  0  0  0  0
   74.3408   38.0636   38.4620 O   0  0  0  0  0  0  0  0  0  0  0  0
   75.8895   39.0529   39.9657 C   0  0  0  0  0  0  0  0  0  0  0  0
   76.5568   37.9709   40.5088 C   0  0  0  0  0  0  0  0  0  0  0  0
   77.5158   38.2469   41.4726 C   0  0  0  0  0  0  0  0  0  0  0  0
   77.7944   39.5595   41.8457 C   0  0  0  0  0  0  0  0  0  0  0  0
   73.4448   40.8075   37.8219 C   0  0  1  0  0  0  0  0  0  0  0  0
   72.1295   41.0152   38.5613 C   0  0  0  0  0  0  0  0  0  0  0  0
   71.8581   40.4673   39.6200 O   0  0  0  0  0  0  0  0  0  0  0  0
   71.2100   41.8146   37.9222 N   0  0  0  0  0  0  0  0  0  0  0  0
   71.3426   42.5207   36.7501 C   0  0  0  0  0  0  0  0  0  0  0  0
   70.4489   43.2337   36.3183 O   0  0  0  0  0  0  0  0  0  0  0  0
   72.6605   42.3584   36.0309 C   0  0  0  0  0  0  0  0  0  0  0  0
   73.7856   42.0532   37.0064 C   0  0  0  0  0  0  0  0  0  0  0  0
   78.2579   42.1206   42.2593 H   0  0  0  0  0  0  0  0  0  0  0  0
   77.0666   42.7420   41.1450 H   0  0  0  0  0  0  0  0  0  0  0  0
   76.3329   36.9513   40.2116 H   0  0  0  0  0  0  0  0  0  0  0  0
   78.0533   37.4304   41.9452 H   0  0  0  0  0  0  0  0  0  0  0  0
   78.5392   39.7361   42.6153 H   0  0  0  0  0  0  0  0  0  0  0  0
   73.2723   39.9720   37.1335 H   0  0  0  0  0  0  0  0  0  0  0  0
   70.3352   41.9447   38.4083 H   0  0  0  0  0  0  0  0  0  0  0  0
   72.5536   41.5585   35.2906 H   0  0  0  0  0  0  0  0  0  0  0  0
   72.8770   43.2884   35.4973 H   0  0  0  0  0  0  0  0  0  0  0  0
   74.7213   41.9125   36.4601 H   0  0  0  0  0  0  0  0  0  0  0  0
   73.9353   42.9194   37.6558 H   0  0  0  0  0  0  0  0  0  0  0  0
  1  2  1  0  0  0  0
  1 21  1  0  0  0  0
  1 22  1  0  0  0  0
  2  3  1  0  0  0  0
  2 12  2  0  0  0  0
  3  9  2  0  0  0  0
  3  4  1  0  0  0  0
  4  5  2  0  0  0  0
  4  6  1  0  0  0  0
  6  7  1  0  0  0  0
 13  6  1  0  0  0  0
  7  8  2  0  0  0  0
  7  9  1  0  0  0  0
  9 10  1  0  0  0  0
 10 23  1  0  0  0  0
 10 11  2  0  0  0  0
 11 12  1  0  0  0  0
 11 24  1  0  0  0  0
 12 25  1  0  0  0  0
 13 26  1  0  0  0  0
 13 14  1  0  0  0  0
 13 20  1  0  0  0  0
 14 15  2  0  0  0  0
 14 16  1  0  0  0  0
 16 27  1  0  0  0  0
 16 17  1  0  0  0  0
 17 18  2  0  0  0  0
 17 19  1  0  0  0  0
 19 28  1  0  0  0  0
 19 29  1  0  0  0  0
 19 20  1  0  0  0  0
 20 30  1  0  0  0  0
 20 31  1  0  0  0  0
M  ZZC   1 n1
M  ZZC   2 c1
M  ZZC   3 c2
M  ZZC   4 c3
M  ZZC   5 o1
M  ZZC   6 n2
M  ZZC   7 c4
M  ZZC   8 o2
M  ZZC   9 c5
M  ZZC  10 c6
M  ZZC  11 c7
M  ZZC  12 c8
M  ZZC  13 c9
M  ZZC  14 c10
M  ZZC  15 o3
M  ZZC  16 n3
M  ZZC  17 c11
M  ZZC  18 o4
M  ZZC  19 c12
M  ZZC  20 c13
M  ZZC  21 h11
M  ZZC  22 h12
M  ZZC  23 h61
M  ZZC  24 h71
M  ZZC  25 h81
M  ZZC  26 h91
M  ZZC  27 h31
M  ZZC  28 h121
M  ZZC  29 h122
M  ZZC  30 h131
M  ZZC  31 h132
M  ZZM   1 40
M  ZZI   1 224
M  ZZM   2 37
M  ZZI   2 124
M  ZZM   3 37
M  ZZI   3 124
M  ZZM   4 3
M  ZZI   4 121
M  ZZM   5 7
M  ZZI   5 81
M  ZZM   6 10
M  ZZI   6 192
M  ZZM   7 3
M  ZZI   7 121
M  ZZM   8 7
M  ZZI   8 81
M  ZZM   9 37
M  ZZI   9 124
M  ZZM  10 37
M  ZZI  10 125
M  ZZM  11 37
M  ZZI  11 125
M  ZZM  12 37
M  ZZI  12 125
M  ZZM  13 1
M  ZZI  13 113
M  ZZM  14 3
M  ZZI  14 121
M  ZZM  15 7
M  ZZI  15 81
M  ZZM  16 10
M  ZZI  16 191
M  ZZM  17 3
M  ZZI  17 121
M  ZZM  18 7
M  ZZI  18 81
M  ZZM  19 1
M  ZZI  19 112
M  ZZM  20 1
M  ZZI  20 112
M  ZZM  21 28
M  ZZI  21 11
M  ZZM  22 28
M  ZZI  22 11
M  ZZM  23 5
M  ZZI  23 1
M  ZZM  24 5
M  ZZI  24 1
M  ZZM  25 5
M  ZZI  25 1
M  ZZM  26 5
M  ZZI  26 1
M  ZZM  27 28
M  ZZI  27 11
M  ZZM  28 5
M  ZZI  28 1
M  ZZM  29 5
M  ZZI  29 1
M  ZZM  30 5
M  ZZI  30 1
M  ZZM  31 5
M  ZZI  31 1
M  END
> <IX>
1

> <NAME>
Cereblon_4QNQ_41.pdb

> <Score>
-15.670974

> <Natom>
31

> <Nflex>
1

> <Hbond>
-3.304827

> <Hphob>
-3.620758

> <VwInt>
-23.903638

> <Dsolv>
16.566889

> <SolEl>
8.371689

> <Eintl>
0.782171

> <RecConf>
ND

> <projPath>
Cereblon_maps/

> <NAME_>
Cereblon_4QNQ_41.pdb

$$$$
