Cereblon_1HWK_31.pdb
  MOLSOFT 04032206193D

 30 32  0  0  1  0  0  0  0  0999 V2000
   76.0587   42.8417   38.6170 C   0  0  0  0  0  0  0  0  0  0  0  0
   74.9789   42.0626   38.2356 C   0  0  0  0  0  0  0  0  0  0  0  0
   74.7308   40.8779   38.8686 C   0  0  0  0  0  0  0  0  0  0  0  0
   73.5572   40.2603   38.2467 C   0  0  0  0  0  0  0  0  0  0  0  0
   73.1126   39.1691   38.5717 O   0  0  0  0  0  0  0  0  0  0  0  0
   73.1130   41.1351   37.2710 N   0  0  0  0  0  0  0  0  0  0  0  0
   71.9675   40.8506   36.3869 C   0  0  1  0  0  0  0  0  0  0  0  0
   70.6411   41.0182   37.1259 C   0  0  0  0  0  0  0  0  0  0  0  0
   70.1995   40.2084   37.9267 O   0  0  0  0  0  0  0  0  0  0  0  0
   69.9373   42.1666   36.8844 N   0  0  0  0  0  0  0  0  0  0  0  0
   70.2123   43.1856   36.0240 C   0  0  0  0  0  0  0  0  0  0  0  0
   69.4806   44.1581   35.9780 O   0  0  0  0  0  0  0  0  0  0  0  0
   71.4664   43.0604   35.2031 C   0  0  0  0  0  0  0  0  0  0  0  0
   71.9220   41.6136   35.0600 C   0  0  0  0  0  0  0  0  0  0  0  0
   73.9712   42.3045   37.1716 C   0  0  0  0  0  0  0  0  0  0  0  0
   75.5091   40.3973   39.9047 C   0  0  0  0  0  0  0  0  0  0  0  0
   76.5753   41.1864   40.3089 C   0  0  0  0  0  0  0  0  0  0  0  0
   76.8449   42.3939   39.6700 C   0  0  0  0  0  0  0  0  0  0  0  0
   76.2933   43.7746   38.1140 H   0  0  0  0  0  0  0  0  0  0  0  0
   72.0346   39.7832   36.1480 H   0  0  0  0  0  0  0  0  0  0  0  0
   69.0668   42.2621   37.3909 H   0  0  0  0  0  0  0  0  0  0  0  0
   71.2557   43.4671   34.2110 H   0  0  0  0  0  0  0  0  0  0  0  0
   72.2329   43.6939   35.6534 H   0  0  0  0  0  0  0  0  0  0  0  0
   71.2112   41.1057   34.3975 H   0  0  0  0  0  0  0  0  0  0  0  0
   72.8900   41.5739   34.5524 H   0  0  0  0  0  0  0  0  0  0  0  0
   73.3943   43.2087   37.3732 H   0  0  0  0  0  0  0  0  0  0  0  0
   74.4430   42.3391   36.1847 H   0  0  0  0  0  0  0  0  0  0  0  0
   75.2970   39.4453   40.3808 H   0  0  0  0  0  0  0  0  0  0  0  0
   77.2138   40.8553   41.1224 H   0  0  0  0  0  0  0  0  0  0  0  0
   77.6920   42.9902   39.9955 H   0  0  0  0  0  0  0  0  0  0  0  0
  1 19  1  0  0  0  0
  1 18  2  0  0  0  0
  1  2  1  0  0  0  0
  2  3  2  0  0  0  0
  2 15  1  0  0  0  0
  3 16  1  0  0  0  0
  3  4  1  0  0  0  0
  4  6  1  0  0  0  0
  4  5  2  0  0  0  0
  6 15  1  0  0  0  0
  7  6  1  0  0  0  0
  7 20  1  0  0  0  0
  7  8  1  0  0  0  0
  7 14  1  0  0  0  0
  8  9  2  0  0  0  0
  8 10  1  0  0  0  0
 10 21  1  0  0  0  0
 10 11  1  0  0  0  0
 11 12  2  0  0  0  0
 11 13  1  0  0  0  0
 13 22  1  0  0  0  0
 13 23  1  0  0  0  0
 13 14  1  0  0  0  0
 14 24  1  0  0  0  0
 14 25  1  0  0  0  0
 15 26  1  0  0  0  0
 15 27  1  0  0  0  0
 16 17  2  0  0  0  0
 16 28  1  0  0  0  0
 17 18  1  0  0  0  0
 17 29  1  0  0  0  0
 18 30  1  0  0  0  0
M  ZZC   1 c1
M  ZZC   2 c2
M  ZZC   3 c3
M  ZZC   4 c4
M  ZZC   5 o1
M  ZZC   6 n1
M  ZZC   7 c5
M  ZZC   8 c6
M  ZZC   9 o2
M  ZZC  10 n2
M  ZZC  11 c7
M  ZZC  12 o3
M  ZZC  13 c8
M  ZZC  14 c9
M  ZZC  15 c10
M  ZZC  16 c11
M  ZZC  17 c12
M  ZZC  18 c13
M  ZZC  19 h11
M  ZZC  20 h51
M  ZZC  21 h21
M  ZZC  22 h81
M  ZZC  23 h82
M  ZZC  24 h91
M  ZZC  25 h92
M  ZZC  26 h101
M  ZZC  27 h102
M  ZZC  28 h111
M  ZZC  29 h121
M  ZZC  30 h131
M  ZZM   1 37
M  ZZI   1 125
M  ZZM   2 37
M  ZZI   2 124
M  ZZM   3 37
M  ZZI   3 124
M  ZZM   4 3
M  ZZI   4 121
M  ZZM   5 7
M  ZZI   5 81
M  ZZM   6 10
M  ZZI   6 192
M  ZZM   7 1
M  ZZI   7 113
M  ZZM   8 3
M  ZZI   8 121
M  ZZM   9 7
M  ZZI   9 81
M  ZZM  10 10
M  ZZI  10 191
M  ZZM  11 3
M  ZZI  11 121
M  ZZM  12 7
M  ZZI  12 81
M  ZZM  13 1
M  ZZI  13 112
M  ZZM  14 1
M  ZZI  14 112
M  ZZM  15 1
M  ZZI  15 112
M  ZZM  16 37
M  ZZI  16 125
M  ZZM  17 37
M  ZZI  17 125
M  ZZM  18 37
M  ZZI  18 125
M  ZZM  19 5
M  ZZI  19 1
M  ZZM  20 5
M  ZZI  20 1
M  ZZM  21 28
M  ZZI  21 11
M  ZZM  22 5
M  ZZI  22 1
M  ZZM  23 5
M  ZZI  23 1
M  ZZM  24 5
M  ZZI  24 1
M  ZZM  25 5
M  ZZI  25 1
M  ZZM  26 5
M  ZZI  26 1
M  ZZM  27 5
M  ZZI  27 1
M  ZZM  28 5
M  ZZI  28 1
M  ZZM  29 5
M  ZZI  29 1
M  ZZM  30 5
M  ZZI  30 1
M  END
> <IX>
1

> <NAME>
Cereblon_1HWK_31.pdb

> <Score>
-14.400973

> <Natom>
30

> <Nflex>
1

> <Hbond>
-4.298144

> <Hphob>
-3.942215

> <VwInt>
-21.854527

> <Dsolv>
12.571524

> <SolEl>
11.570033

> <Eintl>
5.507132

> <RecConf>
ND

> <projPath>
Cereblon_maps/

> <NAME_>
Cereblon_1HWK_31.pdb

$$$$
