Cereblon_2WXL_6.pdb
  MOLSOFT 04032206203D

 29 31  0  0  1  0  0  0  0  0999 V2000
   79.0048   42.4907   42.6731 C   0  0  0  0  0  0  0  0  0  0  0  0
   78.1864   42.1958   41.5971 C   0  0  0  0  0  0  0  0  0  0  0  0
   77.2687   41.0773   41.4119 C   0  0  0  0  0  0  0  0  0  0  0  0
   77.0887   40.2163   42.2594 O   0  0  0  0  0  0  0  0  0  0  0  0
   76.7280   41.2197   40.1470 N   0  0  0  0  0  0  0  0  0  0  0  0
   77.2241   42.3469   39.5239 C   0  0  0  0  0  0  0  0  0  0  0  0
   76.9881   42.7651   38.3977 O   0  0  0  0  0  0  0  0  0  0  0  0
   78.1593   42.9586   40.4684 C   0  0  0  0  0  0  0  0  0  0  0  0
   78.9584   44.0746   40.3257 C   0  0  0  0  0  0  0  0  0  0  0  0
   79.7994   44.3851   41.3883 C   0  0  0  0  0  0  0  0  0  0  0  0
   79.8233   43.6068   42.5464 C   0  0  0  0  0  0  0  0  0  0  0  0
   75.7190   40.3653   39.5143 C   0  0  2  0  0  0  0  0  0  0  0  0
   74.3399   40.9342   39.8042 C   0  0  0  0  0  0  0  0  0  0  0  0
   74.1524   42.1203   40.0187 O   0  0  0  0  0  0  0  0  0  0  0  0
   73.2889   40.0529   39.7281 N   0  0  0  0  0  0  0  0  0  0  0  0
   73.3261   38.7075   39.4540 C   0  0  0  0  0  0  0  0  0  0  0  0
   72.3099   38.0349   39.3933 O   0  0  0  0  0  0  0  0  0  0  0  0
   74.6908   38.1257   39.1784 C   0  0  0  0  0  0  0  0  0  0  0  0
   75.7731   38.8948   39.9154 C   0  0  0  0  0  0  0  0  0  0  0  0
   79.0151   41.8763   43.5692 H   0  0  0  0  0  0  0  0  0  0  0  0
   78.9268   44.6762   39.4252 H   0  0  0  0  0  0  0  0  0  0  0  0
   80.4457   45.2518   41.3198 H   0  0  0  0  0  0  0  0  0  0  0  0
   80.4894   43.8772   43.3607 H   0  0  0  0  0  0  0  0  0  0  0  0
   75.8573   40.4528   38.4348 H   0  0  0  0  0  0  0  0  0  0  0  0
   72.3706   40.4470   39.8906 H   0  0  0  0  0  0  0  0  0  0  0  0
   74.6977   37.0804   39.5021 H   0  0  0  0  0  0  0  0  0  0  0  0
   74.8529   38.1474   38.0963 H   0  0  0  0  0  0  0  0  0  0  0  0
   75.6106   38.7744   40.9904 H   0  0  0  0  0  0  0  0  0  0  0  0
   76.7582   38.4733   39.6923 H   0  0  0  0  0  0  0  0  0  0  0  0
  1 20  1  0  0  0  0
  1  2  1  0  0  0  0
  1 11  2  0  0  0  0
  2  3  1  0  0  0  0
  2  8  2  0  0  0  0
  3  4  2  0  0  0  0
  3  5  1  0  0  0  0
  5  6  1  0  0  0  0
 12  5  1  0  0  0  0
  6  7  2  0  0  0  0
  6  8  1  0  0  0  0
  8  9  1  0  0  0  0
  9 21  1  0  0  0  0
  9 10  2  0  0  0  0
 10 22  1  0  0  0  0
 10 11  1  0  0  0  0
 11 23  1  0  0  0  0
 12 24  1  0  0  0  0
 12 13  1  0  0  0  0
 12 19  1  0  0  0  0
 13 14  2  0  0  0  0
 13 15  1  0  0  0  0
 15 25  1  0  0  0  0
 15 16  1  0  0  0  0
 16 17  2  0  0  0  0
 16 18  1  0  0  0  0
 18 26  1  0  0  0  0
 18 27  1  0  0  0  0
 18 19  1  0  0  0  0
 19 28  1  0  0  0  0
 19 29  1  0  0  0  0
M  ZZC   1 c1
M  ZZC   2 c2
M  ZZC   3 c3
M  ZZC   4 o1
M  ZZC   5 n1
M  ZZC   6 c4
M  ZZC   7 o2
M  ZZC   8 c5
M  ZZC   9 c6
M  ZZC  10 c7
M  ZZC  11 c8
M  ZZC  12 c9
M  ZZC  13 c10
M  ZZC  14 o3
M  ZZC  15 n2
M  ZZC  16 c11
M  ZZC  17 o4
M  ZZC  18 c12
M  ZZC  19 c13
M  ZZC  20 h11
M  ZZC  21 h61
M  ZZC  22 h71
M  ZZC  23 h81
M  ZZC  24 h91
M  ZZC  25 h21
M  ZZC  26 h121
M  ZZC  27 h122
M  ZZC  28 h131
M  ZZC  29 h132
M  ZZM   1 37
M  ZZI   1 125
M  ZZM   2 37
M  ZZI   2 124
M  ZZM   3 3
M  ZZI   3 121
M  ZZM   4 7
M  ZZI   4 81
M  ZZM   5 10
M  ZZI   5 192
M  ZZM   6 3
M  ZZI   6 121
M  ZZM   7 7
M  ZZI   7 81
M  ZZM   8 37
M  ZZI   8 124
M  ZZM   9 37
M  ZZI   9 125
M  ZZM  10 37
M  ZZI  10 125
M  ZZM  11 37
M  ZZI  11 125
M  ZZM  12 1
M  ZZI  12 113
M  ZZM  13 3
M  ZZI  13 121
M  ZZM  14 7
M  ZZI  14 81
M  ZZM  15 10
M  ZZI  15 191
M  ZZM  16 3
M  ZZI  16 121
M  ZZM  17 7
M  ZZI  17 81
M  ZZM  18 1
M  ZZI  18 112
M  ZZM  19 1
M  ZZI  19 112
M  ZZM  20 5
M  ZZI  20 1
M  ZZM  21 5
M  ZZI  21 1
M  ZZM  22 5
M  ZZI  22 1
M  ZZM  23 5
M  ZZI  23 1
M  ZZM  24 5
M  ZZI  24 1
M  ZZM  25 28
M  ZZI  25 11
M  ZZM  26 5
M  ZZI  26 1
M  ZZM  27 5
M  ZZI  27 1
M  ZZM  28 5
M  ZZI  28 1
M  ZZM  29 5
M  ZZI  29 1
M  END
> <IX>
1

> <NAME>
Cereblon_2WXL_6.pdb

> <Score>
-19.375782

> <Natom>
29

> <Nflex>
1

> <Hbond>
-3.366841

> <Hphob>
-3.52798

> <VwInt>
-22.694657

> <Dsolv>
11.975813

> <SolEl>
5.654902

> <Eintl>
1.477724

> <RecConf>
ND

> <projPath>
Cereblon_maps/

> <NAME_>
Cereblon_2WXL_6.pdb

$$$$
