Cereblon_6NY4_6.pdb
  MOLSOFT 04032206293D

 30 32  0  0  1  0  0  0  0  0999 V2000
   77.6188   41.1018   42.0867 C   0  0  0  0  0  0  0  0  0  0  0  0
   76.9793   41.1613   40.8588 C   0  0  0  0  0  0  0  0  0  0  0  0
   77.2715   42.1638   39.9738 C   0  0  0  0  0  0  0  0  0  0  0  0
   76.4168   41.9936   38.7929 C   0  0  0  0  0  0  0  0  0  0  0  0
   76.4502   42.7045   37.7982 O   0  0  0  0  0  0  0  0  0  0  0  0
   75.5787   40.9260   39.0589 N   0  0  0  0  0  0  0  0  0  0  0  0
   74.2726   40.7589   38.4016 C   0  0  2  0  0  0  0  0  0  0  0  0
   73.2447   41.5338   39.2088 C   0  0  0  0  0  0  0  0  0  0  0  0
   73.5607   42.3877   40.0208 O   0  0  0  0  0  0  0  0  0  0  0  0
   71.9277   41.2506   38.9378 N   0  0  0  0  0  0  0  0  0  0  0  0
   71.4238   40.2380   38.1581 C   0  0  0  0  0  0  0  0  0  0  0  0
   70.2227   40.1222   37.9622 O   0  0  0  0  0  0  0  0  0  0  0  0
   72.4495   39.3167   37.5295 C   0  0  0  0  0  0  0  0  0  0  0  0
   73.7731   39.3231   38.2866 C   0  0  0  0  0  0  0  0  0  0  0  0
   75.9296   40.2692   40.3039 C   0  0  0  0  0  0  0  0  0  0  0  0
   78.2008   43.1557   40.2399 C   0  0  0  0  0  0  0  0  0  0  0  0
   78.8544   43.0936   41.4640 C   0  0  0  0  0  0  0  0  0  0  0  0
   78.5570   42.0840   42.3793 C   0  0  0  0  0  0  0  0  0  0  0  0
   77.3903   40.3216   42.8066 H   0  0  0  0  0  0  0  0  0  0  0  0
   74.3217   41.2395   37.4170 H   0  0  0  0  0  0  0  0  0  0  0  0
   71.2503   41.8589   39.3807 H   0  0  0  0  0  0  0  0  0  0  0  0
   72.0388   38.3022   37.5131 H   0  0  0  0  0  0  0  0  0  0  0  0
   72.5994   39.6371   36.4927 H   0  0  0  0  0  0  0  0  0  0  0  0
   73.6284   38.8856   39.2816 H   0  0  0  0  0  0  0  0  0  0  0  0
   74.5018   38.6922   37.7700 H   0  0  0  0  0  0  0  0  0  0  0  0
   76.3065   39.2632   40.0906 H   0  0  0  0  0  0  0  0  0  0  0  0
   75.0581   40.2326   40.9527 H   0  0  0  0  0  0  0  0  0  0  0  0
   78.4067   43.9491   39.5291 H   0  0  0  0  0  0  0  0  0  0  0  0
   79.5883   43.8514   41.7195 H   0  0  0  0  0  0  0  0  0  0  0  0
   79.0665   42.0644   43.3379 H   0  0  0  0  0  0  0  0  0  0  0  0
  1 19  1  0  0  0  0
  1 18  2  0  0  0  0
  1  2  1  0  0  0  0
  2  3  2  0  0  0  0
  2 15  1  0  0  0  0
  3 16  1  0  0  0  0
  3  4  1  0  0  0  0
  4  6  1  0  0  0  0
  4  5  2  0  0  0  0
  6 15  1  0  0  0  0
  7  6  1  0  0  0  0
  7 20  1  0  0  0  0
  7  8  1  0  0  0  0
  7 14  1  0  0  0  0
  8  9  2  0  0  0  0
  8 10  1  0  0  0  0
 10 21  1  0  0  0  0
 10 11  1  0  0  0  0
 11 12  2  0  0  0  0
 11 13  1  0  0  0  0
 13 22  1  0  0  0  0
 13 23  1  0  0  0  0
 13 14  1  0  0  0  0
 14 24  1  0  0  0  0
 14 25  1  0  0  0  0
 15 26  1  0  0  0  0
 15 27  1  0  0  0  0
 16 17  2  0  0  0  0
 16 28  1  0  0  0  0
 17 18  1  0  0  0  0
 17 29  1  0  0  0  0
 18 30  1  0  0  0  0
M  ZZC   1 c1
M  ZZC   2 c2
M  ZZC   3 c3
M  ZZC   4 c4
M  ZZC   5 o1
M  ZZC   6 n1
M  ZZC   7 c5
M  ZZC   8 c6
M  ZZC   9 o2
M  ZZC  10 n2
M  ZZC  11 c7
M  ZZC  12 o3
M  ZZC  13 c8
M  ZZC  14 c9
M  ZZC  15 c10
M  ZZC  16 c11
M  ZZC  17 c12
M  ZZC  18 c13
M  ZZC  19 h11
M  ZZC  20 h51
M  ZZC  21 h21
M  ZZC  22 h81
M  ZZC  23 h82
M  ZZC  24 h91
M  ZZC  25 h92
M  ZZC  26 h101
M  ZZC  27 h102
M  ZZC  28 h111
M  ZZC  29 h121
M  ZZC  30 h131
M  ZZM   1 37
M  ZZI   1 125
M  ZZM   2 37
M  ZZI   2 124
M  ZZM   3 37
M  ZZI   3 124
M  ZZM   4 3
M  ZZI   4 121
M  ZZM   5 7
M  ZZI   5 81
M  ZZM   6 10
M  ZZI   6 192
M  ZZM   7 1
M  ZZI   7 113
M  ZZM   8 3
M  ZZI   8 121
M  ZZM   9 7
M  ZZI   9 81
M  ZZM  10 10
M  ZZI  10 191
M  ZZM  11 3
M  ZZI  11 121
M  ZZM  12 7
M  ZZI  12 81
M  ZZM  13 1
M  ZZI  13 112
M  ZZM  14 1
M  ZZI  14 112
M  ZZM  15 1
M  ZZI  15 112
M  ZZM  16 37
M  ZZI  16 125
M  ZZM  17 37
M  ZZI  17 125
M  ZZM  18 37
M  ZZI  18 125
M  ZZM  19 5
M  ZZI  19 1
M  ZZM  20 5
M  ZZI  20 1
M  ZZM  21 28
M  ZZI  21 11
M  ZZM  22 5
M  ZZI  22 1
M  ZZM  23 5
M  ZZI  23 1
M  ZZM  24 5
M  ZZI  24 1
M  ZZM  25 5
M  ZZI  25 1
M  ZZM  26 5
M  ZZI  26 1
M  ZZM  27 5
M  ZZI  27 1
M  ZZM  28 5
M  ZZI  28 1
M  ZZM  29 5
M  ZZI  29 1
M  ZZM  30 5
M  ZZI  30 1
M  END
> <IX>
1

> <NAME>
Cereblon_6NY4_6.pdb

> <Score>
-15.72624

> <Natom>
30

> <Nflex>
1

> <Hbond>
-4.197413

> <Hphob>
-3.692505

> <VwInt>
-19.479041

> <Dsolv>
13.969658

> <SolEl>
5.103938

> <Eintl>
4.000654

> <RecConf>
ND

> <projPath>
Cereblon_maps/

> <NAME_>
Cereblon_6NY4_6.pdb

$$$$
