Cereblon_3K6P_20.pdb
  MOLSOFT 04032206213D

 31 33  0  0  1  0  0  0  0  0999 V2000
   76.7306   41.9874   40.4786 N   0  0  0  0  0  0  0  0  0  0  0  0
   76.3206   40.6784   40.1821 C   0  0  0  0  0  0  0  0  0  0  0  0
   75.2226   40.4124   39.3829 C   0  0  0  0  0  0  0  0  0  0  0  0
   74.3434   41.3455   38.6890 C   0  0  0  0  0  0  0  0  0  0  0  0
   74.4007   42.5547   38.8550 O   0  0  0  0  0  0  0  0  0  0  0  0
   73.4811   40.5807   37.9258 N   0  0  0  0  0  0  0  0  0  0  0  0
   73.6911   39.2364   38.1620 C   0  0  0  0  0  0  0  0  0  0  0  0
   73.0994   38.2660   37.7119 O   0  0  0  0  0  0  0  0  0  0  0  0
   74.8102   39.1483   39.0983 C   0  0  0  0  0  0  0  0  0  0  0  0
   75.4246   38.0378   39.6458 C   0  0  0  0  0  0  0  0  0  0  0  0
   76.4919   38.2745   40.5038 C   0  0  0  0  0  0  0  0  0  0  0  0
   76.9251   39.5736   40.7734 C   0  0  0  0  0  0  0  0  0  0  0  0
   72.3976   41.0778   37.0656 C   0  0  1  0  0  0  0  0  0  0  0  0
   71.1521   41.3401   37.9063 C   0  0  0  0  0  0  0  0  0  0  0  0
   70.8905   40.7224   38.9281 O   0  0  0  0  0  0  0  0  0  0  0  0
   70.2680   42.2636   37.3989 N   0  0  0  0  0  0  0  0  0  0  0  0
   70.3874   43.0472   36.2828 C   0  0  0  0  0  0  0  0  0  0  0  0
   69.5668   43.9153   36.0302 O   0  0  0  0  0  0  0  0  0  0  0  0
   71.5733   42.7469   35.4019 C   0  0  0  0  0  0  0  0  0  0  0  0
   72.7637   42.3128   36.2416 C   0  0  0  0  0  0  0  0  0  0  0  0
   77.6683   42.1177   40.8527 H   0  0  0  0  0  0  0  0  0  0  0  0
   76.3433   42.7468   39.9182 H   0  0  0  0  0  0  0  0  0  0  0  0
   75.0889   37.0301   39.4199 H   0  0  0  0  0  0  0  0  0  0  0  0
   76.9997   37.4351   40.9693 H   0  0  0  0  0  0  0  0  0  0  0  0
   77.7586   39.7219   41.4524 H   0  0  0  0  0  0  0  0  0  0  0  0
   72.1277   40.2656   36.3807 H   0  0  0  0  0  0  0  0  0  0  0  0
   69.4403   42.4345   37.9510 H   0  0  0  0  0  0  0  0  0  0  0  0
   71.2875   41.9692   34.6856 H   0  0  0  0  0  0  0  0  0  0  0  0
   71.8218   43.6508   34.8406 H   0  0  0  0  0  0  0  0  0  0  0  0
   73.6210   42.0962   35.5966 H   0  0  0  0  0  0  0  0  0  0  0  0
   73.0570   43.1473   36.8860 H   0  0  0  0  0  0  0  0  0  0  0  0
  1  2  1  0  0  0  0
  1 21  1  0  0  0  0
  1 22  1  0  0  0  0
  2  3  1  0  0  0  0
  2 12  2  0  0  0  0
  3  9  2  0  0  0  0
  3  4  1  0  0  0  0
  4  5  2  0  0  0  0
  4  6  1  0  0  0  0
  6  7  1  0  0  0  0
 13  6  1  0  0  0  0
  7  8  2  0  0  0  0
  7  9  1  0  0  0  0
  9 10  1  0  0  0  0
 10 23  1  0  0  0  0
 10 11  2  0  0  0  0
 11 12  1  0  0  0  0
 11 24  1  0  0  0  0
 12 25  1  0  0  0  0
 13 26  1  0  0  0  0
 13 14  1  0  0  0  0
 13 20  1  0  0  0  0
 14 15  2  0  0  0  0
 14 16  1  0  0  0  0
 16 27  1  0  0  0  0
 16 17  1  0  0  0  0
 17 18  2  0  0  0  0
 17 19  1  0  0  0  0
 19 28  1  0  0  0  0
 19 29  1  0  0  0  0
 19 20  1  0  0  0  0
 20 30  1  0  0  0  0
 20 31  1  0  0  0  0
M  ZZC   1 n1
M  ZZC   2 c1
M  ZZC   3 c2
M  ZZC   4 c3
M  ZZC   5 o1
M  ZZC   6 n2
M  ZZC   7 c4
M  ZZC   8 o2
M  ZZC   9 c5
M  ZZC  10 c6
M  ZZC  11 c7
M  ZZC  12 c8
M  ZZC  13 c9
M  ZZC  14 c10
M  ZZC  15 o3
M  ZZC  16 n3
M  ZZC  17 c11
M  ZZC  18 o4
M  ZZC  19 c12
M  ZZC  20 c13
M  ZZC  21 h11
M  ZZC  22 h12
M  ZZC  23 h61
M  ZZC  24 h71
M  ZZC  25 h81
M  ZZC  26 h91
M  ZZC  27 h31
M  ZZC  28 h121
M  ZZC  29 h122
M  ZZC  30 h131
M  ZZC  31 h132
M  ZZM   1 40
M  ZZI   1 224
M  ZZM   2 37
M  ZZI   2 124
M  ZZM   3 37
M  ZZI   3 124
M  ZZM   4 3
M  ZZI   4 121
M  ZZM   5 7
M  ZZI   5 81
M  ZZM   6 10
M  ZZI   6 192
M  ZZM   7 3
M  ZZI   7 121
M  ZZM   8 7
M  ZZI   8 81
M  ZZM   9 37
M  ZZI   9 124
M  ZZM  10 37
M  ZZI  10 125
M  ZZM  11 37
M  ZZI  11 125
M  ZZM  12 37
M  ZZI  12 125
M  ZZM  13 1
M  ZZI  13 113
M  ZZM  14 3
M  ZZI  14 121
M  ZZM  15 7
M  ZZI  15 81
M  ZZM  16 10
M  ZZI  16 191
M  ZZM  17 3
M  ZZI  17 121
M  ZZM  18 7
M  ZZI  18 81
M  ZZM  19 1
M  ZZI  19 112
M  ZZM  20 1
M  ZZI  20 112
M  ZZM  21 28
M  ZZI  21 11
M  ZZM  22 28
M  ZZI  22 11
M  ZZM  23 5
M  ZZI  23 1
M  ZZM  24 5
M  ZZI  24 1
M  ZZM  25 5
M  ZZI  25 1
M  ZZM  26 5
M  ZZI  26 1
M  ZZM  27 28
M  ZZI  27 11
M  ZZM  28 5
M  ZZI  28 1
M  ZZM  29 5
M  ZZI  29 1
M  ZZM  30 5
M  ZZI  30 1
M  ZZM  31 5
M  ZZI  31 1
M  END
> <IX>
1

> <NAME>
Cereblon_3K6P_20.pdb

> <Score>
-19.418685

> <Natom>
31

> <Nflex>
1

> <Hbond>
-4.817374

> <Hphob>
-3.550254

> <VwInt>
-25.291544

> <Dsolv>
15.879782

> <SolEl>
10.759683

> <Eintl>
1.380433

> <RecConf>
ND

> <projPath>
Cereblon_maps/

> <NAME_>
Cereblon_3K6P_20.pdb

$$$$
