Cereblon_4QNQ_54.pdb
  MOLSOFT 04032206243D

 31 33  0  0  1  0  0  0  0  0999 V2000
   77.3659   41.8988   41.5854 N   0  0  0  0  0  0  0  0  0  0  0  0
   77.0609   40.5969   41.1589 C   0  0  0  0  0  0  0  0  0  0  0  0
   76.0604   40.3140   40.2365 C   0  0  0  0  0  0  0  0  0  0  0  0
   75.1519   41.2044   39.5054 C   0  0  0  0  0  0  0  0  0  0  0  0
   75.0920   42.4100   39.6929 O   0  0  0  0  0  0  0  0  0  0  0  0
   74.4024   40.4042   38.6638 N   0  0  0  0  0  0  0  0  0  0  0  0
   74.7051   39.0748   38.8640 C   0  0  0  0  0  0  0  0  0  0  0  0
   74.2167   38.0815   38.3449 O   0  0  0  0  0  0  0  0  0  0  0  0
   75.7715   39.0359   39.8607 C   0  0  0  0  0  0  0  0  0  0  0  0
   76.4265   37.9394   40.3895 C   0  0  0  0  0  0  0  0  0  0  0  0
   77.3975   38.1934   41.3473 C   0  0  0  0  0  0  0  0  0  0  0  0
   77.6957   39.4986   41.7330 C   0  0  0  0  0  0  0  0  0  0  0  0
   73.3462   40.8448   37.7396 C   0  0  1  0  0  0  0  0  0  0  0  0
   72.0386   41.0590   38.4923 C   0  0  0  0  0  0  0  0  0  0  0  0
   71.7786   40.5171   39.5569 O   0  0  0  0  0  0  0  0  0  0  0  0
   71.1126   41.8578   37.8605 N   0  0  0  0  0  0  0  0  0  0  0  0
   71.2643   42.6204   36.7274 C   0  0  0  0  0  0  0  0  0  0  0  0
   70.4002   43.3970   36.3477 O   0  0  0  0  0  0  0  0  0  0  0  0
   72.5608   42.4258   35.9792 C   0  0  0  0  0  0  0  0  0  0  0  0
   73.6953   42.0936   36.9341 C   0  0  0  0  0  0  0  0  0  0  0  0
   78.1918   42.0539   42.1592 H   0  0  0  0  0  0  0  0  0  0  0  0
   76.9980   42.6933   41.0609 H   0  0  0  0  0  0  0  0  0  0  0  0
   76.1855   36.9267   40.0814 H   0  0  0  0  0  0  0  0  0  0  0  0
   77.9268   37.3643   41.8077 H   0  0  0  0  0  0  0  0  0  0  0  0
   78.4470   39.6592   42.4998 H   0  0  0  0  0  0  0  0  0  0  0  0
   73.1576   40.0195   37.0436 H   0  0  0  0  0  0  0  0  0  0  0  0
   70.2451   41.9927   38.3581 H   0  0  0  0  0  0  0  0  0  0  0  0
   72.4192   41.6288   35.2418 H   0  0  0  0  0  0  0  0  0  0  0  0
   72.7904   43.3501   35.4414 H   0  0  0  0  0  0  0  0  0  0  0  0
   74.6212   41.9420   36.3730 H   0  0  0  0  0  0  0  0  0  0  0  0
   73.8684   42.9487   37.5925 H   0  0  0  0  0  0  0  0  0  0  0  0
  1  2  1  0  0  0  0
  1 21  1  0  0  0  0
  1 22  1  0  0  0  0
  2  3  1  0  0  0  0
  2 12  2  0  0  0  0
  3  9  2  0  0  0  0
  3  4  1  0  0  0  0
  4  5  2  0  0  0  0
  4  6  1  0  0  0  0
  6  7  1  0  0  0  0
 13  6  1  0  0  0  0
  7  8  2  0  0  0  0
  7  9  1  0  0  0  0
  9 10  1  0  0  0  0
 10 23  1  0  0  0  0
 10 11  2  0  0  0  0
 11 12  1  0  0  0  0
 11 24  1  0  0  0  0
 12 25  1  0  0  0  0
 13 26  1  0  0  0  0
 13 14  1  0  0  0  0
 13 20  1  0  0  0  0
 14 15  2  0  0  0  0
 14 16  1  0  0  0  0
 16 27  1  0  0  0  0
 16 17  1  0  0  0  0
 17 18  2  0  0  0  0
 17 19  1  0  0  0  0
 19 28  1  0  0  0  0
 19 29  1  0  0  0  0
 19 20  1  0  0  0  0
 20 30  1  0  0  0  0
 20 31  1  0  0  0  0
M  ZZC   1 n1
M  ZZC   2 c1
M  ZZC   3 c2
M  ZZC   4 c3
M  ZZC   5 o1
M  ZZC   6 n2
M  ZZC   7 c4
M  ZZC   8 o2
M  ZZC   9 c5
M  ZZC  10 c6
M  ZZC  11 c7
M  ZZC  12 c8
M  ZZC  13 c9
M  ZZC  14 c10
M  ZZC  15 o3
M  ZZC  16 n3
M  ZZC  17 c11
M  ZZC  18 o4
M  ZZC  19 c12
M  ZZC  20 c13
M  ZZC  21 h11
M  ZZC  22 h12
M  ZZC  23 h61
M  ZZC  24 h71
M  ZZC  25 h81
M  ZZC  26 h91
M  ZZC  27 h31
M  ZZC  28 h121
M  ZZC  29 h122
M  ZZC  30 h131
M  ZZC  31 h132
M  ZZM   1 40
M  ZZI   1 224
M  ZZM   2 37
M  ZZI   2 124
M  ZZM   3 37
M  ZZI   3 124
M  ZZM   4 3
M  ZZI   4 121
M  ZZM   5 7
M  ZZI   5 81
M  ZZM   6 10
M  ZZI   6 192
M  ZZM   7 3
M  ZZI   7 121
M  ZZM   8 7
M  ZZI   8 81
M  ZZM   9 37
M  ZZI   9 124
M  ZZM  10 37
M  ZZI  10 125
M  ZZM  11 37
M  ZZI  11 125
M  ZZM  12 37
M  ZZI  12 125
M  ZZM  13 1
M  ZZI  13 113
M  ZZM  14 3
M  ZZI  14 121
M  ZZM  15 7
M  ZZI  15 81
M  ZZM  16 10
M  ZZI  16 191
M  ZZM  17 3
M  ZZI  17 121
M  ZZM  18 7
M  ZZI  18 81
M  ZZM  19 1
M  ZZI  19 112
M  ZZM  20 1
M  ZZI  20 112
M  ZZM  21 28
M  ZZI  21 11
M  ZZM  22 28
M  ZZI  22 11
M  ZZM  23 5
M  ZZI  23 1
M  ZZM  24 5
M  ZZI  24 1
M  ZZM  25 5
M  ZZI  25 1
M  ZZM  26 5
M  ZZI  26 1
M  ZZM  27 28
M  ZZI  27 11
M  ZZM  28 5
M  ZZI  28 1
M  ZZM  29 5
M  ZZI  29 1
M  ZZM  30 5
M  ZZI  30 1
M  ZZM  31 5
M  ZZI  31 1
M  END
> <IX>
1

> <NAME>
Cereblon_4QNQ_54.pdb

> <Score>
-15.791983

> <Natom>
31

> <Nflex>
1

> <Hbond>
-3.508843

> <Hphob>
-3.559159

> <VwInt>
-23.999633

> <Dsolv>
16.44419

> <SolEl>
9.159767

> <Eintl>
0.81845

> <RecConf>
ND

> <projPath>
Cereblon_maps/

> <NAME_>
Cereblon_4QNQ_54.pdb

$$$$
