Cereblon_5TOB_17.pdb
  MOLSOFT 04032206263D

 29 31  0  0  1  0  0  0  0  0999 V2000
   79.0071   42.4934   42.6688 C   0  0  0  0  0  0  0  0  0  0  0  0
   78.1846   42.1994   41.5956 C   0  0  0  0  0  0  0  0  0  0  0  0
   77.2663   41.0813   41.4120 C   0  0  0  0  0  0  0  0  0  0  0  0
   77.0851   40.2223   42.2611 O   0  0  0  0  0  0  0  0  0  0  0  0
   76.7255   41.2223   40.1470 N   0  0  0  0  0  0  0  0  0  0  0  0
   77.2208   42.3490   39.5226 C   0  0  0  0  0  0  0  0  0  0  0  0
   76.9846   42.7651   38.3956 O   0  0  0  0  0  0  0  0  0  0  0  0
   78.1569   42.9607   40.4663 C   0  0  0  0  0  0  0  0  0  0  0  0
   78.9569   44.0756   40.3212 C   0  0  0  0  0  0  0  0  0  0  0  0
   79.8018   44.3853   41.3811 C   0  0  0  0  0  0  0  0  0  0  0  0
   79.8283   43.6072   42.5392 C   0  0  0  0  0  0  0  0  0  0  0  0
   75.7188   40.3645   39.5157 C   0  0  2  0  0  0  0  0  0  0  0  0
   74.3389   40.9316   39.8060 C   0  0  0  0  0  0  0  0  0  0  0  0
   74.1493   42.1175   40.0205 O   0  0  0  0  0  0  0  0  0  0  0  0
   73.2901   40.0475   39.7333 N   0  0  0  0  0  0  0  0  0  0  0  0
   73.3299   38.7017   39.4625 C   0  0  0  0  0  0  0  0  0  0  0  0
   72.3157   38.0255   39.4095 O   0  0  0  0  0  0  0  0  0  0  0  0
   74.6947   38.1226   39.1831 C   0  0  0  0  0  0  0  0  0  0  0  0
   75.7770   38.8948   39.9166 C   0  0  0  0  0  0  0  0  0  0  0  0
   79.0225   41.8764   43.5629 H   0  0  0  0  0  0  0  0  0  0  0  0
   78.9273   44.6746   39.4186 H   0  0  0  0  0  0  0  0  0  0  0  0
   80.4544   45.2476   41.3071 H   0  0  0  0  0  0  0  0  0  0  0  0
   80.5009   43.8719   43.3502 H   0  0  0  0  0  0  0  0  0  0  0  0
   75.8564   40.4539   38.4361 H   0  0  0  0  0  0  0  0  0  0  0  0
   72.3710   40.4386   39.8985 H   0  0  0  0  0  0  0  0  0  0  0  0
   74.7026   37.0775   39.5087 H   0  0  0  0  0  0  0  0  0  0  0  0
   74.8527   38.1457   38.1004 H   0  0  0  0  0  0  0  0  0  0  0  0
   75.6178   38.7745   40.9919 H   0  0  0  0  0  0  0  0  0  0  0  0
   76.7626   38.4757   39.6893 H   0  0  0  0  0  0  0  0  0  0  0  0
  1 20  1  0  0  0  0
  1  2  1  0  0  0  0
  1 11  2  0  0  0  0
  2  3  1  0  0  0  0
  2  8  2  0  0  0  0
  3  4  2  0  0  0  0
  3  5  1  0  0  0  0
  5  6  1  0  0  0  0
 12  5  1  0  0  0  0
  6  7  2  0  0  0  0
  6  8  1  0  0  0  0
  8  9  1  0  0  0  0
  9 21  1  0  0  0  0
  9 10  2  0  0  0  0
 10 22  1  0  0  0  0
 10 11  1  0  0  0  0
 11 23  1  0  0  0  0
 12 24  1  0  0  0  0
 12 13  1  0  0  0  0
 12 19  1  0  0  0  0
 13 14  2  0  0  0  0
 13 15  1  0  0  0  0
 15 25  1  0  0  0  0
 15 16  1  0  0  0  0
 16 17  2  0  0  0  0
 16 18  1  0  0  0  0
 18 26  1  0  0  0  0
 18 27  1  0  0  0  0
 18 19  1  0  0  0  0
 19 28  1  0  0  0  0
 19 29  1  0  0  0  0
M  ZZC   1 c1
M  ZZC   2 c2
M  ZZC   3 c3
M  ZZC   4 o1
M  ZZC   5 n1
M  ZZC   6 c4
M  ZZC   7 o2
M  ZZC   8 c5
M  ZZC   9 c6
M  ZZC  10 c7
M  ZZC  11 c8
M  ZZC  12 c9
M  ZZC  13 c10
M  ZZC  14 o3
M  ZZC  15 n2
M  ZZC  16 c11
M  ZZC  17 o4
M  ZZC  18 c12
M  ZZC  19 c13
M  ZZC  20 h11
M  ZZC  21 h61
M  ZZC  22 h71
M  ZZC  23 h81
M  ZZC  24 h91
M  ZZC  25 h21
M  ZZC  26 h121
M  ZZC  27 h122
M  ZZC  28 h131
M  ZZC  29 h132
M  ZZM   1 37
M  ZZI   1 125
M  ZZM   2 37
M  ZZI   2 124
M  ZZM   3 3
M  ZZI   3 121
M  ZZM   4 7
M  ZZI   4 81
M  ZZM   5 10
M  ZZI   5 192
M  ZZM   6 3
M  ZZI   6 121
M  ZZM   7 7
M  ZZI   7 81
M  ZZM   8 37
M  ZZI   8 124
M  ZZM   9 37
M  ZZI   9 125
M  ZZM  10 37
M  ZZI  10 125
M  ZZM  11 37
M  ZZI  11 125
M  ZZM  12 1
M  ZZI  12 113
M  ZZM  13 3
M  ZZI  13 121
M  ZZM  14 7
M  ZZI  14 81
M  ZZM  15 10
M  ZZI  15 191
M  ZZM  16 3
M  ZZI  16 121
M  ZZM  17 7
M  ZZI  17 81
M  ZZM  18 1
M  ZZI  18 112
M  ZZM  19 1
M  ZZI  19 112
M  ZZM  20 5
M  ZZI  20 1
M  ZZM  21 5
M  ZZI  21 1
M  ZZM  22 5
M  ZZI  22 1
M  ZZM  23 5
M  ZZI  23 1
M  ZZM  24 5
M  ZZI  24 1
M  ZZM  25 28
M  ZZI  25 11
M  ZZM  26 5
M  ZZI  26 1
M  ZZM  27 5
M  ZZI  27 1
M  ZZM  28 5
M  ZZI  28 1
M  ZZM  29 5
M  ZZI  29 1
M  END
> <IX>
1

> <NAME>
Cereblon_5TOB_17.pdb

> <Score>
-19.29458

> <Natom>
29

> <Nflex>
1

> <Hbond>
-3.368598

> <Hphob>
-3.546995

> <VwInt>
-22.712336

> <Dsolv>
12.012088

> <SolEl>
5.783103

> <Eintl>
1.484802

> <RecConf>
ND

> <projPath>
Cereblon_maps/

> <NAME_>
Cereblon_5TOB_17.pdb

$$$$
