Cereblon_7NQ8_6.pdb
  MOLSOFT 04032206313D

 31 33  0  0  1  0  0  0  0  0999 V2000
   81.6200   53.0778   19.7040 N   0  0  0  0  0  0  0  0  0  0  0  0
   81.9340   54.4425   19.7379 C   0  0  0  0  0  0  0  0  0  0  0  0
   81.2316   55.3390   20.5250 C   0  0  0  0  0  0  0  0  0  0  0  0
   80.0304   55.1254   21.3275 C   0  0  0  0  0  0  0  0  0  0  0  0
   79.4235   54.0659   21.4004 O   0  0  0  0  0  0  0  0  0  0  0  0
   79.7608   56.3271   21.9456 N   0  0  0  0  0  0  0  0  0  0  0  0
   80.6728   57.2936   21.5755 C   0  0  0  0  0  0  0  0  0  0  0  0
   80.7455   58.4702   21.8985 O   0  0  0  0  0  0  0  0  0  0  0  0
   81.6112   56.6395   20.6669 C   0  0  0  0  0  0  0  0  0  0  0  0
   82.7283   57.1524   20.0345 C   0  0  0  0  0  0  0  0  0  0  0  0
   83.4617   56.2699   19.2515 C   0  0  0  0  0  0  0  0  0  0  0  0
   83.0799   54.9333   19.1252 C   0  0  0  0  0  0  0  0  0  0  0  0
   78.6175   56.5126   22.8388 C   0  0  2  0  0  0  0  0  0  0  0  0
   77.4671   57.1885   22.1174 C   0  0  0  0  0  0  0  0  0  0  0  0
   77.3315   57.1809   20.9028 O   0  0  0  0  0  0  0  0  0  0  0  0
   76.5171   57.7379   22.9455 N   0  0  0  0  0  0  0  0  0  0  0  0
   76.4987   57.7897   24.3187 C   0  0  0  0  0  0  0  0  0  0  0  0
   75.5313   58.2101   24.9327 O   0  0  0  0  0  0  0  0  0  0  0  0
   77.7207   57.2482   25.0227 C   0  0  0  0  0  0  0  0  0  0  0  0
   78.9344   57.2870   24.1144 C   0  0  0  0  0  0  0  0  0  0  0  0
   82.0396   52.5288   18.9588 H   0  0  0  0  0  0  0  0  0  0  0  0
   80.6533   52.8428   19.9285 H   0  0  0  0  0  0  0  0  0  0  0  0
   83.0266   58.1897   20.1530 H   0  0  0  0  0  0  0  0  0  0  0  0
   84.3554   56.6204   18.7423 H   0  0  0  0  0  0  0  0  0  0  0  0
   83.6899   54.2599   18.5316 H   0  0  0  0  0  0  0  0  0  0  0  0
   78.2519   55.5157   23.0997 H   0  0  0  0  0  0  0  0  0  0  0  0
   75.7235   58.1576   22.4800 H   0  0  0  0  0  0  0  0  0  0  0  0
   77.9071   57.8465   25.9203 H   0  0  0  0  0  0  0  0  0  0  0  0
   77.5109   56.2224   25.3350 H   0  0  0  0  0  0  0  0  0  0  0  0
   79.1861   58.3293   23.8914 H   0  0  0  0  0  0  0  0  0  0  0  0
   79.7974   56.8540   24.6283 H   0  0  0  0  0  0  0  0  0  0  0  0
  1  2  1  0  0  0  0
  1 21  1  0  0  0  0
  1 22  1  0  0  0  0
  2  3  1  0  0  0  0
  2 12  2  0  0  0  0
  3  9  2  0  0  0  0
  3  4  1  0  0  0  0
  4  5  2  0  0  0  0
  4  6  1  0  0  0  0
  6  7  1  0  0  0  0
 13  6  1  0  0  0  0
  7  8  2  0  0  0  0
  7  9  1  0  0  0  0
  9 10  1  0  0  0  0
 10 23  1  0  0  0  0
 10 11  2  0  0  0  0
 11 12  1  0  0  0  0
 11 24  1  0  0  0  0
 12 25  1  0  0  0  0
 13 26  1  0  0  0  0
 13 14  1  0  0  0  0
 13 20  1  0  0  0  0
 14 15  2  0  0  0  0
 14 16  1  0  0  0  0
 16 27  1  0  0  0  0
 16 17  1  0  0  0  0
 17 18  2  0  0  0  0
 17 19  1  0  0  0  0
 19 28  1  0  0  0  0
 19 29  1  0  0  0  0
 19 20  1  0  0  0  0
 20 30  1  0  0  0  0
 20 31  1  0  0  0  0
M  ZZC   1 n1
M  ZZC   2 c1
M  ZZC   3 c2
M  ZZC   4 c3
M  ZZC   5 o1
M  ZZC   6 n2
M  ZZC   7 c4
M  ZZC   8 o2
M  ZZC   9 c5
M  ZZC  10 c6
M  ZZC  11 c7
M  ZZC  12 c8
M  ZZC  13 c9
M  ZZC  14 c10
M  ZZC  15 o3
M  ZZC  16 n3
M  ZZC  17 c11
M  ZZC  18 o4
M  ZZC  19 c12
M  ZZC  20 c13
M  ZZC  21 h11
M  ZZC  22 h12
M  ZZC  23 h61
M  ZZC  24 h71
M  ZZC  25 h81
M  ZZC  26 h91
M  ZZC  27 h31
M  ZZC  28 h121
M  ZZC  29 h122
M  ZZC  30 h131
M  ZZC  31 h132
M  ZZM   1 40
M  ZZI   1 224
M  ZZM   2 37
M  ZZI   2 124
M  ZZM   3 37
M  ZZI   3 124
M  ZZM   4 3
M  ZZI   4 121
M  ZZM   5 7
M  ZZI   5 81
M  ZZM   6 10
M  ZZI   6 192
M  ZZM   7 3
M  ZZI   7 121
M  ZZM   8 7
M  ZZI   8 81
M  ZZM   9 37
M  ZZI   9 124
M  ZZM  10 37
M  ZZI  10 125
M  ZZM  11 37
M  ZZI  11 125
M  ZZM  12 37
M  ZZI  12 125
M  ZZM  13 1
M  ZZI  13 113
M  ZZM  14 3
M  ZZI  14 121
M  ZZM  15 7
M  ZZI  15 81
M  ZZM  16 10
M  ZZI  16 191
M  ZZM  17 3
M  ZZI  17 121
M  ZZM  18 7
M  ZZI  18 81
M  ZZM  19 1
M  ZZI  19 112
M  ZZM  20 1
M  ZZI  20 112
M  ZZM  21 28
M  ZZI  21 11
M  ZZM  22 28
M  ZZI  22 11
M  ZZM  23 5
M  ZZI  23 1
M  ZZM  24 5
M  ZZI  24 1
M  ZZM  25 5
M  ZZI  25 1
M  ZZM  26 5
M  ZZI  26 1
M  ZZM  27 28
M  ZZI  27 11
M  ZZM  28 5
M  ZZI  28 1
M  ZZM  29 5
M  ZZI  29 1
M  ZZM  30 5
M  ZZI  30 1
M  ZZM  31 5
M  ZZI  31 1
M  END
> <IX>
1

> <NAME>
Cereblon_7NQ8_6.pdb

> <Score>
-23.201803

> <Natom>
31

> <Nflex>
1

> <Hbond>
-4.445379

> <Hphob>
-3.34066

> <VwInt>
-24.656368

> <Dsolv>
13.965153

> <SolEl>
5.094501

> <Eintl>
0.838965

> <RecConf>
ND

> <projPath>
Cereblon_maps/

> <NAME_>
Cereblon_7NQ8_6.pdb

$$$$
