Cereblon_5J8O_17.pdb
  MOLSOFT 04032206253D

 29 31  0  0  1  0  0  0  0  0999 V2000
   78.9993   42.4809   42.6751 C   0  0  0  0  0  0  0  0  0  0  0  0
   78.1806   42.1907   41.5982 C   0  0  0  0  0  0  0  0  0  0  0  0
   77.2627   41.0735   41.4096 C   0  0  0  0  0  0  0  0  0  0  0  0
   77.0859   40.2087   42.2536 O   0  0  0  0  0  0  0  0  0  0  0  0
   76.7210   41.2207   40.1461 N   0  0  0  0  0  0  0  0  0  0  0  0
   77.2204   42.3473   39.5247 C   0  0  0  0  0  0  0  0  0  0  0  0
   76.9874   42.7664   38.3980 O   0  0  0  0  0  0  0  0  0  0  0  0
   78.1552   42.9561   40.4714 C   0  0  0  0  0  0  0  0  0  0  0  0
   78.9562   44.0715   40.3327 C   0  0  0  0  0  0  0  0  0  0  0  0
   79.7973   44.3777   41.3970 C   0  0  0  0  0  0  0  0  0  0  0  0
   79.8198   43.5962   42.5529 C   0  0  0  0  0  0  0  0  0  0  0  0
   75.7144   40.3661   39.5105 C   0  0  2  0  0  0  0  0  0  0  0  0
   74.3340   40.9354   39.7961 C   0  0  0  0  0  0  0  0  0  0  0  0
   74.1479   42.1213   40.0131 O   0  0  0  0  0  0  0  0  0  0  0  0
   73.2833   40.0546   39.7145 N   0  0  0  0  0  0  0  0  0  0  0  0
   73.3211   38.7095   39.4397 C   0  0  0  0  0  0  0  0  0  0  0  0
   72.3045   38.0382   39.3734 O   0  0  0  0  0  0  0  0  0  0  0  0
   74.6868   38.1264   39.1708 C   0  0  0  0  0  0  0  0  0  0  0  0
   75.7665   38.8955   39.9117 C   0  0  0  0  0  0  0  0  0  0  0  0
   79.0065   41.8633   43.5690 H   0  0  0  0  0  0  0  0  0  0  0  0
   78.9281   44.6746   39.4329 H   0  0  0  0  0  0  0  0  0  0  0  0
   80.4480   45.2420   41.3296 H   0  0  0  0  0  0  0  0  0  0  0  0
   80.4873   43.8618   43.3677 H   0  0  0  0  0  0  0  0  0  0  0  0
   75.8561   40.4552   38.4314 H   0  0  0  0  0  0  0  0  0  0  0  0
   72.3646   40.4495   39.8731 H   0  0  0  0  0  0  0  0  0  0  0  0
   74.6903   37.0809   39.4952 H   0  0  0  0  0  0  0  0  0  0  0  0
   74.8533   38.1467   38.0895 H   0  0  0  0  0  0  0  0  0  0  0  0
   75.5995   38.7754   40.9857 H   0  0  0  0  0  0  0  0  0  0  0  0
   76.7526   38.4728   39.6931 H   0  0  0  0  0  0  0  0  0  0  0  0
  1 20  1  0  0  0  0
  1  2  1  0  0  0  0
  1 11  2  0  0  0  0
  2  3  1  0  0  0  0
  2  8  2  0  0  0  0
  3  4  2  0  0  0  0
  3  5  1  0  0  0  0
  5  6  1  0  0  0  0
 12  5  1  0  0  0  0
  6  7  2  0  0  0  0
  6  8  1  0  0  0  0
  8  9  1  0  0  0  0
  9 21  1  0  0  0  0
  9 10  2  0  0  0  0
 10 22  1  0  0  0  0
 10 11  1  0  0  0  0
 11 23  1  0  0  0  0
 12 24  1  0  0  0  0
 12 13  1  0  0  0  0
 12 19  1  0  0  0  0
 13 14  2  0  0  0  0
 13 15  1  0  0  0  0
 15 25  1  0  0  0  0
 15 16  1  0  0  0  0
 16 17  2  0  0  0  0
 16 18  1  0  0  0  0
 18 26  1  0  0  0  0
 18 27  1  0  0  0  0
 18 19  1  0  0  0  0
 19 28  1  0  0  0  0
 19 29  1  0  0  0  0
M  ZZC   1 c1
M  ZZC   2 c2
M  ZZC   3 c3
M  ZZC   4 o1
M  ZZC   5 n1
M  ZZC   6 c4
M  ZZC   7 o2
M  ZZC   8 c5
M  ZZC   9 c6
M  ZZC  10 c7
M  ZZC  11 c8
M  ZZC  12 c9
M  ZZC  13 c10
M  ZZC  14 o3
M  ZZC  15 n2
M  ZZC  16 c11
M  ZZC  17 o4
M  ZZC  18 c12
M  ZZC  19 c13
M  ZZC  20 h11
M  ZZC  21 h61
M  ZZC  22 h71
M  ZZC  23 h81
M  ZZC  24 h91
M  ZZC  25 h21
M  ZZC  26 h121
M  ZZC  27 h122
M  ZZC  28 h131
M  ZZC  29 h132
M  ZZM   1 37
M  ZZI   1 125
M  ZZM   2 37
M  ZZI   2 124
M  ZZM   3 3
M  ZZI   3 121
M  ZZM   4 7
M  ZZI   4 81
M  ZZM   5 10
M  ZZI   5 192
M  ZZM   6 3
M  ZZI   6 121
M  ZZM   7 7
M  ZZI   7 81
M  ZZM   8 37
M  ZZI   8 124
M  ZZM   9 37
M  ZZI   9 125
M  ZZM  10 37
M  ZZI  10 125
M  ZZM  11 37
M  ZZI  11 125
M  ZZM  12 1
M  ZZI  12 113
M  ZZM  13 3
M  ZZI  13 121
M  ZZM  14 7
M  ZZI  14 81
M  ZZM  15 10
M  ZZI  15 191
M  ZZM  16 3
M  ZZI  16 121
M  ZZM  17 7
M  ZZI  17 81
M  ZZM  18 1
M  ZZI  18 112
M  ZZM  19 1
M  ZZI  19 112
M  ZZM  20 5
M  ZZI  20 1
M  ZZM  21 5
M  ZZI  21 1
M  ZZM  22 5
M  ZZI  22 1
M  ZZM  23 5
M  ZZI  23 1
M  ZZM  24 5
M  ZZI  24 1
M  ZZM  25 28
M  ZZI  25 11
M  ZZM  26 5
M  ZZI  26 1
M  ZZM  27 5
M  ZZI  27 1
M  ZZM  28 5
M  ZZI  28 1
M  ZZM  29 5
M  ZZI  29 1
M  END
> <IX>
1

> <NAME>
Cereblon_5J8O_17.pdb

> <Score>
-19.397084

> <Natom>
29

> <Nflex>
1

> <Hbond>
-3.369216

> <Hphob>
-3.565163

> <VwInt>
-22.731478

> <Dsolv>
12.094437

> <SolEl>
5.558179

> <Eintl>
1.513238

> <RecConf>
ND

> <projPath>
Cereblon_maps/

> <NAME_>
Cereblon_5J8O_17.pdb

$$$$
