Cereblon_4R6E_1.pdb
  MOLSOFT 04032206243D

 31 33  0  0  1  0  0  0  0  0999 V2000
   78.8162   41.6795   43.8092 N   0  0  0  0  0  0  0  0  0  0  0  0
   78.8972   42.4316   42.6275 C   0  0  0  0  0  0  0  0  0  0  0  0
   78.0946   42.1608   41.5322 C   0  0  0  0  0  0  0  0  0  0  0  0
   77.1728   41.0513   41.3268 C   0  0  0  0  0  0  0  0  0  0  0  0
   76.9892   40.1705   42.1538 O   0  0  0  0  0  0  0  0  0  0  0  0
   76.6377   41.2149   40.0648 N   0  0  0  0  0  0  0  0  0  0  0  0
   77.1615   42.3325   39.4478 C   0  0  0  0  0  0  0  0  0  0  0  0
   76.9520   42.7508   38.3166 O   0  0  0  0  0  0  0  0  0  0  0  0
   78.0930   42.9286   40.4067 C   0  0  0  0  0  0  0  0  0  0  0  0
   78.9065   44.0361   40.2835 C   0  0  0  0  0  0  0  0  0  0  0  0
   79.7254   44.3357   41.3660 C   0  0  0  0  0  0  0  0  0  0  0  0
   79.7120   43.5553   42.5239 C   0  0  0  0  0  0  0  0  0  0  0  0
   75.6187   40.3766   39.4286 C   0  0  2  0  0  0  0  0  0  0  0  0
   74.2476   40.9567   39.7301 C   0  0  0  0  0  0  0  0  0  0  0  0
   74.0784   42.1362   39.9904 O   0  0  0  0  0  0  0  0  0  0  0  0
   73.1860   40.0936   39.6085 N   0  0  0  0  0  0  0  0  0  0  0  0
   73.2101   38.7561   39.2945 C   0  0  0  0  0  0  0  0  0  0  0  0
   72.1844   38.1064   39.1751 O   0  0  0  0  0  0  0  0  0  0  0  0
   74.5733   38.1524   39.0552 C   0  0  0  0  0  0  0  0  0  0  0  0
   75.6497   38.9025   39.8210 C   0  0  0  0  0  0  0  0  0  0  0  0
   79.5365   41.7767   44.5217 H   0  0  0  0  0  0  0  0  0  0  0  0
   78.2767   40.8124   43.7946 H   0  0  0  0  0  0  0  0  0  0  0  0
   78.9003   44.6419   39.3851 H   0  0  0  0  0  0  0  0  0  0  0  0
   80.3782   45.2002   41.3176 H   0  0  0  0  0  0  0  0  0  0  0  0
   80.3492   43.8340   43.3577 H   0  0  0  0  0  0  0  0  0  0  0  0
   75.7549   40.4736   38.3505 H   0  0  0  0  0  0  0  0  0  0  0  0
   72.2705   40.4971   39.7640 H   0  0  0  0  0  0  0  0  0  0  0  0
   74.5532   37.1064   39.3773 H   0  0  0  0  0  0  0  0  0  0  0  0
   74.7684   38.1715   37.9786 H   0  0  0  0  0  0  0  0  0  0  0  0
   75.4619   38.7771   40.8913 H   0  0  0  0  0  0  0  0  0  0  0  0
   76.6346   38.4704   39.6165 H   0  0  0  0  0  0  0  0  0  0  0  0
  1  2  1  0  0  0  0
  1 21  1  0  0  0  0
  1 22  1  0  0  0  0
  2  3  1  0  0  0  0
  2 12  2  0  0  0  0
  3  9  2  0  0  0  0
  3  4  1  0  0  0  0
  4  5  2  0  0  0  0
  4  6  1  0  0  0  0
  6  7  1  0  0  0  0
 13  6  1  0  0  0  0
  7  8  2  0  0  0  0
  7  9  1  0  0  0  0
  9 10  1  0  0  0  0
 10 23  1  0  0  0  0
 10 11  2  0  0  0  0
 11 12  1  0  0  0  0
 11 24  1  0  0  0  0
 12 25  1  0  0  0  0
 13 26  1  0  0  0  0
 13 14  1  0  0  0  0
 13 20  1  0  0  0  0
 14 15  2  0  0  0  0
 14 16  1  0  0  0  0
 16 27  1  0  0  0  0
 16 17  1  0  0  0  0
 17 18  2  0  0  0  0
 17 19  1  0  0  0  0
 19 28  1  0  0  0  0
 19 29  1  0  0  0  0
 19 20  1  0  0  0  0
 20 30  1  0  0  0  0
 20 31  1  0  0  0  0
M  ZZC   1 n1
M  ZZC   2 c1
M  ZZC   3 c2
M  ZZC   4 c3
M  ZZC   5 o1
M  ZZC   6 n2
M  ZZC   7 c4
M  ZZC   8 o2
M  ZZC   9 c5
M  ZZC  10 c6
M  ZZC  11 c7
M  ZZC  12 c8
M  ZZC  13 c9
M  ZZC  14 c10
M  ZZC  15 o3
M  ZZC  16 n3
M  ZZC  17 c11
M  ZZC  18 o4
M  ZZC  19 c12
M  ZZC  20 c13
M  ZZC  21 h11
M  ZZC  22 h12
M  ZZC  23 h61
M  ZZC  24 h71
M  ZZC  25 h81
M  ZZC  26 h91
M  ZZC  27 h31
M  ZZC  28 h121
M  ZZC  29 h122
M  ZZC  30 h131
M  ZZC  31 h132
M  ZZM   1 40
M  ZZI   1 224
M  ZZM   2 37
M  ZZI   2 124
M  ZZM   3 37
M  ZZI   3 124
M  ZZM   4 3
M  ZZI   4 121
M  ZZM   5 7
M  ZZI   5 81
M  ZZM   6 10
M  ZZI   6 192
M  ZZM   7 3
M  ZZI   7 121
M  ZZM   8 7
M  ZZI   8 81
M  ZZM   9 37
M  ZZI   9 124
M  ZZM  10 37
M  ZZI  10 125
M  ZZM  11 37
M  ZZI  11 125
M  ZZM  12 37
M  ZZI  12 125
M  ZZM  13 1
M  ZZI  13 113
M  ZZM  14 3
M  ZZI  14 121
M  ZZM  15 7
M  ZZI  15 81
M  ZZM  16 10
M  ZZI  16 191
M  ZZM  17 3
M  ZZI  17 121
M  ZZM  18 7
M  ZZI  18 81
M  ZZM  19 1
M  ZZI  19 112
M  ZZM  20 1
M  ZZI  20 112
M  ZZM  21 28
M  ZZI  21 11
M  ZZM  22 28
M  ZZI  22 11
M  ZZM  23 5
M  ZZI  23 1
M  ZZM  24 5
M  ZZI  24 1
M  ZZM  25 5
M  ZZI  25 1
M  ZZM  26 5
M  ZZI  26 1
M  ZZM  27 28
M  ZZI  27 11
M  ZZM  28 5
M  ZZI  28 1
M  ZZM  29 5
M  ZZI  29 1
M  ZZM  30 5
M  ZZI  30 1
M  ZZM  31 5
M  ZZI  31 1
M  END
> <IX>
1

> <NAME>
Cereblon_4R6E_1.pdb

> <Score>
-18.607092

> <Natom>
31

> <Nflex>
1

> <Hbond>
-3.683293

> <Hphob>
-3.573105

> <VwInt>
-24.260007

> <Dsolv>
15.15902

> <SolEl>
6.644847

> <Eintl>
1.684603

> <RecConf>
ND

> <projPath>
Cereblon_maps/

> <NAME_>
Cereblon_4R6E_1.pdb

$$$$
