Cereblon_5L2T_5.pdb
  MOLSOFT 04032206263D

 31 33  0  0  1  0  0  0  0  0999 V2000
   78.8163   41.6827   43.8157 N   0  0  0  0  0  0  0  0  0  0  0  0
   78.9048   42.4298   42.6309 C   0  0  0  0  0  0  0  0  0  0  0  0
   78.1003   42.1615   41.5364 C   0  0  0  0  0  0  0  0  0  0  0  0
   77.1791   41.0509   41.3309 C   0  0  0  0  0  0  0  0  0  0  0  0
   76.9950   40.1716   42.1595 O   0  0  0  0  0  0  0  0  0  0  0  0
   76.6476   41.2118   40.0667 N   0  0  0  0  0  0  0  0  0  0  0  0
   77.1677   42.3326   39.4522 C   0  0  0  0  0  0  0  0  0  0  0  0
   76.9540   42.7547   38.3232 O   0  0  0  0  0  0  0  0  0  0  0  0
   78.0980   42.9294   40.4114 C   0  0  0  0  0  0  0  0  0  0  0  0
   78.9091   44.0389   40.2894 C   0  0  0  0  0  0  0  0  0  0  0  0
   79.7256   44.3398   41.3735 C   0  0  0  0  0  0  0  0  0  0  0  0
   79.7125   43.5585   42.5306 C   0  0  0  0  0  0  0  0  0  0  0  0
   75.6272   40.3753   39.4316 C   0  0  2  0  0  0  0  0  0  0  0  0
   74.2557   40.9526   39.7378 C   0  0  0  0  0  0  0  0  0  0  0  0
   74.0845   42.1330   39.9932 O   0  0  0  0  0  0  0  0  0  0  0  0
   73.1956   40.0860   39.6278 N   0  0  0  0  0  0  0  0  0  0  0  0
   73.2209   38.7480   39.3167 C   0  0  0  0  0  0  0  0  0  0  0  0
   72.1967   38.0932   39.2129 O   0  0  0  0  0  0  0  0  0  0  0  0
   74.5838   38.1509   39.0586 C   0  0  0  0  0  0  0  0  0  0  0  0
   75.6622   38.9004   39.8207 C   0  0  0  0  0  0  0  0  0  0  0  0
   79.5428   41.7782   44.5220 H   0  0  0  0  0  0  0  0  0  0  0  0
   78.3081   40.7974   43.7853 H   0  0  0  0  0  0  0  0  0  0  0  0
   78.9018   44.6454   39.3914 H   0  0  0  0  0  0  0  0  0  0  0  0
   80.3751   45.2069   41.3275 H   0  0  0  0  0  0  0  0  0  0  0  0
   80.3461   43.8402   43.3661 H   0  0  0  0  0  0  0  0  0  0  0  0
   75.7600   40.4747   38.3530 H   0  0  0  0  0  0  0  0  0  0  0  0
   72.2803   40.4869   39.7908 H   0  0  0  0  0  0  0  0  0  0  0  0
   74.5708   37.1027   39.3740 H   0  0  0  0  0  0  0  0  0  0  0  0
   74.7686   38.1781   37.9802 H   0  0  0  0  0  0  0  0  0  0  0  0
   75.4791   38.7730   40.8916 H   0  0  0  0  0  0  0  0  0  0  0  0
   76.6469   38.4700   39.6122 H   0  0  0  0  0  0  0  0  0  0  0  0
  1  2  1  0  0  0  0
  1 21  1  0  0  0  0
  1 22  1  0  0  0  0
  2  3  1  0  0  0  0
  2 12  2  0  0  0  0
  3  9  2  0  0  0  0
  3  4  1  0  0  0  0
  4  5  2  0  0  0  0
  4  6  1  0  0  0  0
  6  7  1  0  0  0  0
 13  6  1  0  0  0  0
  7  8  2  0  0  0  0
  7  9  1  0  0  0  0
  9 10  1  0  0  0  0
 10 23  1  0  0  0  0
 10 11  2  0  0  0  0
 11 12  1  0  0  0  0
 11 24  1  0  0  0  0
 12 25  1  0  0  0  0
 13 26  1  0  0  0  0
 13 14  1  0  0  0  0
 13 20  1  0  0  0  0
 14 15  2  0  0  0  0
 14 16  1  0  0  0  0
 16 27  1  0  0  0  0
 16 17  1  0  0  0  0
 17 18  2  0  0  0  0
 17 19  1  0  0  0  0
 19 28  1  0  0  0  0
 19 29  1  0  0  0  0
 19 20  1  0  0  0  0
 20 30  1  0  0  0  0
 20 31  1  0  0  0  0
M  ZZC   1 n1
M  ZZC   2 c1
M  ZZC   3 c2
M  ZZC   4 c3
M  ZZC   5 o1
M  ZZC   6 n2
M  ZZC   7 c4
M  ZZC   8 o2
M  ZZC   9 c5
M  ZZC  10 c6
M  ZZC  11 c7
M  ZZC  12 c8
M  ZZC  13 c9
M  ZZC  14 c10
M  ZZC  15 o3
M  ZZC  16 n3
M  ZZC  17 c11
M  ZZC  18 o4
M  ZZC  19 c12
M  ZZC  20 c13
M  ZZC  21 h11
M  ZZC  22 h12
M  ZZC  23 h61
M  ZZC  24 h71
M  ZZC  25 h81
M  ZZC  26 h91
M  ZZC  27 h31
M  ZZC  28 h121
M  ZZC  29 h122
M  ZZC  30 h131
M  ZZC  31 h132
M  ZZM   1 40
M  ZZI   1 224
M  ZZM   2 37
M  ZZI   2 124
M  ZZM   3 37
M  ZZI   3 124
M  ZZM   4 3
M  ZZI   4 121
M  ZZM   5 7
M  ZZI   5 81
M  ZZM   6 10
M  ZZI   6 192
M  ZZM   7 3
M  ZZI   7 121
M  ZZM   8 7
M  ZZI   8 81
M  ZZM   9 37
M  ZZI   9 124
M  ZZM  10 37
M  ZZI  10 125
M  ZZM  11 37
M  ZZI  11 125
M  ZZM  12 37
M  ZZI  12 125
M  ZZM  13 1
M  ZZI  13 113
M  ZZM  14 3
M  ZZI  14 121
M  ZZM  15 7
M  ZZI  15 81
M  ZZM  16 10
M  ZZI  16 191
M  ZZM  17 3
M  ZZI  17 121
M  ZZM  18 7
M  ZZI  18 81
M  ZZM  19 1
M  ZZI  19 112
M  ZZM  20 1
M  ZZI  20 112
M  ZZM  21 28
M  ZZI  21 11
M  ZZM  22 28
M  ZZI  22 11
M  ZZM  23 5
M  ZZI  23 1
M  ZZM  24 5
M  ZZI  24 1
M  ZZM  25 5
M  ZZI  25 1
M  ZZM  26 5
M  ZZI  26 1
M  ZZM  27 28
M  ZZI  27 11
M  ZZM  28 5
M  ZZI  28 1
M  ZZM  29 5
M  ZZI  29 1
M  ZZM  30 5
M  ZZI  30 1
M  ZZM  31 5
M  ZZI  31 1
M  END
> <IX>
1

> <NAME>
Cereblon_5L2T_5.pdb

> <Score>
-18.536735

> <Natom>
31

> <Nflex>
1

> <Hbond>
-3.705994

> <Hphob>
-3.567587

> <VwInt>
-24.240722

> <Dsolv>
15.145236

> <SolEl>
6.854143

> <Eintl>
1.646287

> <RecConf>
ND

> <projPath>
Cereblon_maps/

> <NAME_>
Cereblon_5L2T_5.pdb

$$$$
