Cereblon_7NQ8_2.pdb
  MOLSOFT 04032206303D

 30 32  0  0  1  0  0  0  0  0999 V2000
   76.4981   37.9992   40.5378 C   0  0  0  0  0  0  0  0  0  0  0  0
   75.7686   39.0368   39.9824 C   0  0  0  0  0  0  0  0  0  0  0  0
   75.9800   40.3211   40.4018 C   0  0  0  0  0  0  0  0  0  0  0  0
   75.0805   41.1959   39.6477 C   0  0  0  0  0  0  0  0  0  0  0  0
   74.9502   42.3943   39.8378 O   0  0  0  0  0  0  0  0  0  0  0  0
   74.4375   40.4036   38.7166 N   0  0  0  0  0  0  0  0  0  0  0  0
   73.4033   40.8602   37.7812 C   0  0  2  0  0  0  0  0  0  0  0  0
   73.8552   42.1048   37.0095 C   0  0  0  0  0  0  0  0  0  0  0  0
   75.0249   42.3502   36.7492 O   0  0  0  0  0  0  0  0  0  0  0  0
   72.8513   42.9287   36.5519 N   0  0  0  0  0  0  0  0  0  0  0  0
   71.4958   42.8190   36.7469 C   0  0  0  0  0  0  0  0  0  0  0  0
   70.7105   43.6609   36.3371 O   0  0  0  0  0  0  0  0  0  0  0  0
   71.0400   41.5702   37.4581 C   0  0  0  0  0  0  0  0  0  0  0  0
   72.0668   41.0954   38.4724 C   0  0  0  0  0  0  0  0  0  0  0  0
   74.7015   38.9954   38.9455 C   0  0  0  0  0  0  0  0  0  0  0  0
   76.9052   40.6604   41.3728 C   0  0  0  0  0  0  0  0  0  0  0  0
   77.6326   39.6231   41.9371 C   0  0  0  0  0  0  0  0  0  0  0  0
   77.4325   38.3101   41.5195 C   0  0  0  0  0  0  0  0  0  0  0  0
   76.3461   36.9715   40.2212 H   0  0  0  0  0  0  0  0  0  0  0  0
   73.2866   40.0729   37.0282 H   0  0  0  0  0  0  0  0  0  0  0  0
   73.1545   43.7528   36.0513 H   0  0  0  0  0  0  0  0  0  0  0  0
   70.0975   41.7885   37.9642 H   0  0  0  0  0  0  0  0  0  0  0  0
   70.8503   40.7992   36.7048 H   0  0  0  0  0  0  0  0  0  0  0  0
   71.7157   40.1725   38.9452 H   0  0  0  0  0  0  0  0  0  0  0  0
   72.1751   41.8272   39.2788 H   0  0  0  0  0  0  0  0  0  0  0  0
   75.0167   38.5136   38.0175 H   0  0  0  0  0  0  0  0  0  0  0  0
   73.7949   38.5189   39.3344 H   0  0  0  0  0  0  0  0  0  0  0  0
   77.0681   41.6899   41.6763 H   0  0  0  0  0  0  0  0  0  0  0  0
   78.3654   39.8388   42.7088 H   0  0  0  0  0  0  0  0  0  0  0  0
   78.0165   37.5148   41.9721 H   0  0  0  0  0  0  0  0  0  0  0  0
  1 19  1  0  0  0  0
  1 18  2  0  0  0  0
  1  2  1  0  0  0  0
  2  3  2  0  0  0  0
  2 15  1  0  0  0  0
  3 16  1  0  0  0  0
  3  4  1  0  0  0  0
  4  6  1  0  0  0  0
  4  5  2  0  0  0  0
  6 15  1  0  0  0  0
  7  6  1  0  0  0  0
  7 20  1  0  0  0  0
  7  8  1  0  0  0  0
  7 14  1  0  0  0  0
  8  9  2  0  0  0  0
  8 10  1  0  0  0  0
 10 21  1  0  0  0  0
 10 11  1  0  0  0  0
 11 12  2  0  0  0  0
 11 13  1  0  0  0  0
 13 22  1  0  0  0  0
 13 23  1  0  0  0  0
 13 14  1  0  0  0  0
 14 24  1  0  0  0  0
 14 25  1  0  0  0  0
 15 26  1  0  0  0  0
 15 27  1  0  0  0  0
 16 17  2  0  0  0  0
 16 28  1  0  0  0  0
 17 18  1  0  0  0  0
 17 29  1  0  0  0  0
 18 30  1  0  0  0  0
M  ZZC   1 c1
M  ZZC   2 c2
M  ZZC   3 c3
M  ZZC   4 c4
M  ZZC   5 o1
M  ZZC   6 n1
M  ZZC   7 c5
M  ZZC   8 c6
M  ZZC   9 o2
M  ZZC  10 n2
M  ZZC  11 c7
M  ZZC  12 o3
M  ZZC  13 c8
M  ZZC  14 c9
M  ZZC  15 c10
M  ZZC  16 c11
M  ZZC  17 c12
M  ZZC  18 c13
M  ZZC  19 h11
M  ZZC  20 h51
M  ZZC  21 h21
M  ZZC  22 h81
M  ZZC  23 h82
M  ZZC  24 h91
M  ZZC  25 h92
M  ZZC  26 h101
M  ZZC  27 h102
M  ZZC  28 h111
M  ZZC  29 h121
M  ZZC  30 h131
M  ZZM   1 37
M  ZZI   1 125
M  ZZM   2 37
M  ZZI   2 124
M  ZZM   3 37
M  ZZI   3 124
M  ZZM   4 3
M  ZZI   4 121
M  ZZM   5 7
M  ZZI   5 81
M  ZZM   6 10
M  ZZI   6 192
M  ZZM   7 1
M  ZZI   7 113
M  ZZM   8 3
M  ZZI   8 121
M  ZZM   9 7
M  ZZI   9 81
M  ZZM  10 10
M  ZZI  10 191
M  ZZM  11 3
M  ZZI  11 121
M  ZZM  12 7
M  ZZI  12 81
M  ZZM  13 1
M  ZZI  13 112
M  ZZM  14 1
M  ZZI  14 112
M  ZZM  15 1
M  ZZI  15 112
M  ZZM  16 37
M  ZZI  16 125
M  ZZM  17 37
M  ZZI  17 125
M  ZZM  18 37
M  ZZI  18 125
M  ZZM  19 5
M  ZZI  19 1
M  ZZM  20 5
M  ZZI  20 1
M  ZZM  21 28
M  ZZI  21 11
M  ZZM  22 5
M  ZZI  22 1
M  ZZM  23 5
M  ZZI  23 1
M  ZZM  24 5
M  ZZI  24 1
M  ZZM  25 5
M  ZZI  25 1
M  ZZM  26 5
M  ZZI  26 1
M  ZZM  27 5
M  ZZI  27 1
M  ZZM  28 5
M  ZZI  28 1
M  ZZM  29 5
M  ZZI  29 1
M  ZZM  30 5
M  ZZI  30 1
M  END
> <IX>
1

> <NAME>
Cereblon_7NQ8_2.pdb

> <Score>
-17.219665

> <Natom>
30

> <Nflex>
1

> <Hbond>
-4.67167

> <Hphob>
-3.608215

> <VwInt>
-20.462655

> <Dsolv>
14.22607

> <SolEl>
6.038104

> <Eintl>
3.708528

> <RecConf>
ND

> <projPath>
Cereblon_maps/

> <NAME_>
Cereblon_7NQ8_2.pdb

$$$$
