Cereblon_5G0J_17.pdb
  MOLSOFT 04032206243D

 31 33  0  0  1  0  0  0  0  0999 V2000
   78.7285   41.7102   43.8950 N   0  0  0  0  0  0  0  0  0  0  0  0
   78.7862   42.4973   42.7333 C   0  0  0  0  0  0  0  0  0  0  0  0
   78.0711   42.1756   41.5914 C   0  0  0  0  0  0  0  0  0  0  0  0
   77.1591   41.0613   41.3694 C   0  0  0  0  0  0  0  0  0  0  0  0
   76.9399   40.2004   42.2081 O   0  0  0  0  0  0  0  0  0  0  0  0
   76.6663   41.2049   40.0880 N   0  0  0  0  0  0  0  0  0  0  0  0
   77.2008   42.3207   39.4772 C   0  0  0  0  0  0  0  0  0  0  0  0
   77.0016   42.7412   38.3448 O   0  0  0  0  0  0  0  0  0  0  0  0
   78.1124   42.9220   40.4528 C   0  0  0  0  0  0  0  0  0  0  0  0
   78.9349   44.0235   40.3403 C   0  0  0  0  0  0  0  0  0  0  0  0
   79.7249   44.3295   41.4426 C   0  0  0  0  0  0  0  0  0  0  0  0
   79.6558   43.5779   42.6178 C   0  0  0  0  0  0  0  0  0  0  0  0
   75.6519   40.3701   39.4408 C   0  0  2  0  0  0  0  0  0  0  0  0
   74.2798   40.9554   39.7310 C   0  0  0  0  0  0  0  0  0  0  0  0
   74.1110   42.1371   39.9823 O   0  0  0  0  0  0  0  0  0  0  0  0
   73.2170   40.0929   39.6155 N   0  0  0  0  0  0  0  0  0  0  0  0
   73.2387   38.7532   39.3132 C   0  0  0  0  0  0  0  0  0  0  0  0
   72.2120   38.1026   39.2070 O   0  0  0  0  0  0  0  0  0  0  0  0
   74.6002   38.1481   39.0689 C   0  0  0  0  0  0  0  0  0  0  0  0
   75.6779   38.8965   39.8336 C   0  0  0  0  0  0  0  0  0  0  0  0
   78.9731   42.1395   44.7861 H   0  0  0  0  0  0  0  0  0  0  0  0
   78.0226   40.9729   43.9247 H   0  0  0  0  0  0  0  0  0  0  0  0
   78.9648   44.6137   39.4321 H   0  0  0  0  0  0  0  0  0  0  0  0
   80.4013   45.1756   41.3946 H   0  0  0  0  0  0  0  0  0  0  0  0
   80.2883   43.8484   43.4580 H   0  0  0  0  0  0  0  0  0  0  0  0
   75.7989   40.4663   38.3638 H   0  0  0  0  0  0  0  0  0  0  0  0
   72.3024   40.4996   39.7679 H   0  0  0  0  0  0  0  0  0  0  0  0
   74.5804   37.1013   39.3883 H   0  0  0  0  0  0  0  0  0  0  0  0
   74.7919   38.1688   37.9919 H   0  0  0  0  0  0  0  0  0  0  0  0
   76.6617   38.4610   39.6315 H   0  0  0  0  0  0  0  0  0  0  0  0
   75.4894   38.7708   40.9038 H   0  0  0  0  0  0  0  0  0  0  0  0
  1  2  1  0  0  0  0
  1 21  1  0  0  0  0
  1 22  1  0  0  0  0
  2  3  1  0  0  0  0
  2 12  2  0  0  0  0
  3  9  2  0  0  0  0
  3  4  1  0  0  0  0
  4  5  2  0  0  0  0
  4  6  1  0  0  0  0
  6  7  1  0  0  0  0
 13  6  1  0  0  0  0
  7  8  2  0  0  0  0
  7  9  1  0  0  0  0
  9 10  1  0  0  0  0
 10 23  1  0  0  0  0
 10 11  2  0  0  0  0
 11 12  1  0  0  0  0
 11 24  1  0  0  0  0
 12 25  1  0  0  0  0
 13 26  1  0  0  0  0
 13 14  1  0  0  0  0
 13 20  1  0  0  0  0
 14 15  2  0  0  0  0
 14 16  1  0  0  0  0
 16 27  1  0  0  0  0
 16 17  1  0  0  0  0
 17 18  2  0  0  0  0
 17 19  1  0  0  0  0
 19 28  1  0  0  0  0
 19 29  1  0  0  0  0
 19 20  1  0  0  0  0
 20 30  1  0  0  0  0
 20 31  1  0  0  0  0
M  ZZC   1 n1
M  ZZC   2 c1
M  ZZC   3 c2
M  ZZC   4 c3
M  ZZC   5 o1
M  ZZC   6 n2
M  ZZC   7 c4
M  ZZC   8 o2
M  ZZC   9 c5
M  ZZC  10 c6
M  ZZC  11 c7
M  ZZC  12 c8
M  ZZC  13 c9
M  ZZC  14 c10
M  ZZC  15 o3
M  ZZC  16 n3
M  ZZC  17 c11
M  ZZC  18 o4
M  ZZC  19 c12
M  ZZC  20 c13
M  ZZC  21 h11
M  ZZC  22 h12
M  ZZC  23 h61
M  ZZC  24 h71
M  ZZC  25 h81
M  ZZC  26 h91
M  ZZC  27 h31
M  ZZC  28 h121
M  ZZC  29 h122
M  ZZC  30 h131
M  ZZC  31 h132
M  ZZM   1 40
M  ZZI   1 224
M  ZZM   2 37
M  ZZI   2 124
M  ZZM   3 37
M  ZZI   3 124
M  ZZM   4 3
M  ZZI   4 121
M  ZZM   5 7
M  ZZI   5 81
M  ZZM   6 10
M  ZZI   6 192
M  ZZM   7 3
M  ZZI   7 121
M  ZZM   8 7
M  ZZI   8 81
M  ZZM   9 37
M  ZZI   9 124
M  ZZM  10 37
M  ZZI  10 125
M  ZZM  11 37
M  ZZI  11 125
M  ZZM  12 37
M  ZZI  12 125
M  ZZM  13 1
M  ZZI  13 113
M  ZZM  14 3
M  ZZI  14 121
M  ZZM  15 7
M  ZZI  15 81
M  ZZM  16 10
M  ZZI  16 191
M  ZZM  17 3
M  ZZI  17 121
M  ZZM  18 7
M  ZZI  18 81
M  ZZM  19 1
M  ZZI  19 112
M  ZZM  20 1
M  ZZI  20 112
M  ZZM  21 28
M  ZZI  21 11
M  ZZM  22 28
M  ZZI  22 11
M  ZZM  23 5
M  ZZI  23 1
M  ZZM  24 5
M  ZZI  24 1
M  ZZM  25 5
M  ZZI  25 1
M  ZZM  26 5
M  ZZI  26 1
M  ZZM  27 28
M  ZZI  27 11
M  ZZM  28 5
M  ZZI  28 1
M  ZZM  29 5
M  ZZI  29 1
M  ZZM  30 5
M  ZZI  30 1
M  ZZM  31 5
M  ZZI  31 1
M  END
> <IX>
1

> <NAME>
Cereblon_5G0J_17.pdb

> <Score>
-21.483622

> <Natom>
31

> <Nflex>
1

> <Hbond>
-4.866323

> <Hphob>
-3.571259

> <VwInt>
-24.049032

> <Dsolv>
15.200684

> <SolEl>
6.335111

> <Eintl>
1.813772

> <RecConf>
ND

> <projPath>
Cereblon_maps/

> <NAME_>
Cereblon_5G0J_17.pdb

$$$$
