Cereblon_1HWK_30.pdb
  MOLSOFT 04032206193D

 30 32  0  0  1  0  0  0  0  0999 V2000
   75.8280   42.9565   38.1099 C   0  0  0  0  0  0  0  0  0  0  0  0
   74.6031   42.3559   37.8665 C   0  0  0  0  0  0  0  0  0  0  0  0
   74.1933   41.3027   38.6367 C   0  0  0  0  0  0  0  0  0  0  0  0
   72.8764   40.8659   38.1627 C   0  0  0  0  0  0  0  0  0  0  0  0
   72.2468   39.9371   38.6488 O   0  0  0  0  0  0  0  0  0  0  0  0
   72.5448   41.6887   37.1046 N   0  0  0  0  0  0  0  0  0  0  0  0
   71.3131   41.5221   36.3159 C   0  0  1  0  0  0  0  0  0  0  0  0
   70.7503   42.8300   35.7710 C   0  0  0  0  0  0  0  0  0  0  0  0
   70.0449   43.5788   36.4314 O   0  0  0  0  0  0  0  0  0  0  0  0
   71.1573   43.1736   34.5065 N   0  0  0  0  0  0  0  0  0  0  0  0
   71.9321   42.4392   33.6368 C   0  0  0  0  0  0  0  0  0  0  0  0
   72.3168   42.9144   32.5799 O   0  0  0  0  0  0  0  0  0  0  0  0
   72.3376   41.0488   34.0643 C   0  0  0  0  0  0  0  0  0  0  0  0
   71.4778   40.5094   35.1862 C   0  0  0  0  0  0  0  0  0  0  0  0
   73.5834   42.6705   36.8293 C   0  0  0  0  0  0  0  0  0  0  0  0
   74.9518   40.7812   39.6677 C   0  0  0  0  0  0  0  0  0  0  0  0
   76.1717   41.3889   39.9240 C   0  0  0  0  0  0  0  0  0  0  0  0
   76.5999   42.4673   39.1555 C   0  0  0  0  0  0  0  0  0  0  0  0
   76.1782   43.7950   37.5135 H   0  0  0  0  0  0  0  0  0  0  0  0
   70.5620   41.1143   37.0004 H   0  0  0  0  0  0  0  0  0  0  0  0
   70.8641   44.0939   34.1900 H   0  0  0  0  0  0  0  0  0  0  0  0
   72.2612   40.3878   33.1948 H   0  0  0  0  0  0  0  0  0  0  0  0
   73.3834   41.0663   34.3691 H   0  0  0  0  0  0  0  0  0  0  0  0
   70.5043   40.2567   34.7628 H   0  0  0  0  0  0  0  0  0  0  0  0
   71.9082   39.5742   35.5595 H   0  0  0  0  0  0  0  0  0  0  0  0
   73.1777   43.6815   36.9360 H   0  0  0  0  0  0  0  0  0  0  0  0
   73.9945   42.5186   35.8303 H   0  0  0  0  0  0  0  0  0  0  0  0
   74.6089   39.9330   40.2506 H   0  0  0  0  0  0  0  0  0  0  0  0
   76.8012   41.0189   40.7277 H   0  0  0  0  0  0  0  0  0  0  0  0
   77.5566   42.9302   39.3763 H   0  0  0  0  0  0  0  0  0  0  0  0
  1 19  1  0  0  0  0
  1 18  2  0  0  0  0
  1  2  1  0  0  0  0
  2  3  2  0  0  0  0
  2 15  1  0  0  0  0
  3 16  1  0  0  0  0
  3  4  1  0  0  0  0
  4  6  1  0  0  0  0
  4  5  2  0  0  0  0
  6 15  1  0  0  0  0
  7  6  1  0  0  0  0
  7 20  1  0  0  0  0
  7  8  1  0  0  0  0
  7 14  1  0  0  0  0
  8  9  2  0  0  0  0
  8 10  1  0  0  0  0
 10 21  1  0  0  0  0
 10 11  1  0  0  0  0
 11 12  2  0  0  0  0
 11 13  1  0  0  0  0
 13 22  1  0  0  0  0
 13 23  1  0  0  0  0
 13 14  1  0  0  0  0
 14 24  1  0  0  0  0
 14 25  1  0  0  0  0
 15 26  1  0  0  0  0
 15 27  1  0  0  0  0
 16 17  2  0  0  0  0
 16 28  1  0  0  0  0
 17 18  1  0  0  0  0
 17 29  1  0  0  0  0
 18 30  1  0  0  0  0
M  ZZC   1 c1
M  ZZC   2 c2
M  ZZC   3 c3
M  ZZC   4 c4
M  ZZC   5 o1
M  ZZC   6 n1
M  ZZC   7 c5
M  ZZC   8 c6
M  ZZC   9 o2
M  ZZC  10 n2
M  ZZC  11 c7
M  ZZC  12 o3
M  ZZC  13 c8
M  ZZC  14 c9
M  ZZC  15 c10
M  ZZC  16 c11
M  ZZC  17 c12
M  ZZC  18 c13
M  ZZC  19 h11
M  ZZC  20 h51
M  ZZC  21 h21
M  ZZC  22 h81
M  ZZC  23 h82
M  ZZC  24 h91
M  ZZC  25 h92
M  ZZC  26 h101
M  ZZC  27 h102
M  ZZC  28 h111
M  ZZC  29 h121
M  ZZC  30 h131
M  ZZM   1 37
M  ZZI   1 125
M  ZZM   2 37
M  ZZI   2 124
M  ZZM   3 37
M  ZZI   3 124
M  ZZM   4 3
M  ZZI   4 121
M  ZZM   5 7
M  ZZI   5 81
M  ZZM   6 10
M  ZZI   6 192
M  ZZM   7 1
M  ZZI   7 113
M  ZZM   8 3
M  ZZI   8 121
M  ZZM   9 7
M  ZZI   9 81
M  ZZM  10 10
M  ZZI  10 191
M  ZZM  11 3
M  ZZI  11 121
M  ZZM  12 7
M  ZZI  12 81
M  ZZM  13 1
M  ZZI  13 112
M  ZZM  14 1
M  ZZI  14 112
M  ZZM  15 1
M  ZZI  15 112
M  ZZM  16 37
M  ZZI  16 125
M  ZZM  17 37
M  ZZI  17 125
M  ZZM  18 37
M  ZZI  18 125
M  ZZM  19 5
M  ZZI  19 1
M  ZZM  20 5
M  ZZI  20 1
M  ZZM  21 28
M  ZZI  21 11
M  ZZM  22 5
M  ZZI  22 1
M  ZZM  23 5
M  ZZI  23 1
M  ZZM  24 5
M  ZZI  24 1
M  ZZM  25 5
M  ZZI  25 1
M  ZZM  26 5
M  ZZI  26 1
M  ZZM  27 5
M  ZZI  27 1
M  ZZM  28 5
M  ZZI  28 1
M  ZZM  29 5
M  ZZI  29 1
M  ZZM  30 5
M  ZZI  30 1
M  END
> <IX>
1

> <NAME>
Cereblon_1HWK_30.pdb

> <Score>
-24.459112

> <Natom>
30

> <Nflex>
1

> <Hbond>
-8.338641

> <Hphob>
-3.719725

> <VwInt>
-18.808916

> <Dsolv>
12.984251

> <SolEl>
8.635096

> <Eintl>
3.169051

> <RecConf>
ND

> <projPath>
Cereblon_maps/

> <NAME_>
Cereblon_1HWK_30.pdb

$$$$
