Cereblon_2EUF_8.pdb
  MOLSOFT 04032206193D

 31 33  0  0  1  0  0  0  0  0999 V2000
   77.8455   40.3864   43.0290 N   0  0  0  0  0  0  0  0  0  0  0  0
   78.0324   41.3741   42.0496 C   0  0  0  0  0  0  0  0  0  0  0  0
   77.2706   41.4282   40.8901 C   0  0  0  0  0  0  0  0  0  0  0  0
   76.2225   40.5249   40.4073 C   0  0  0  0  0  0  0  0  0  0  0  0
   75.9085   39.4814   40.9601 O   0  0  0  0  0  0  0  0  0  0  0  0
   75.7201   41.0899   39.2521 N   0  0  0  0  0  0  0  0  0  0  0  0
   76.4834   42.1763   38.8774 C   0  0  0  0  0  0  0  0  0  0  0  0
   76.4434   42.8200   37.8383 O   0  0  0  0  0  0  0  0  0  0  0  0
   77.4181   42.4257   39.9719 C   0  0  0  0  0  0  0  0  0  0  0  0
   78.3287   43.4547   40.1368 C   0  0  0  0  0  0  0  0  0  0  0  0
   79.0876   43.4383   41.3002 C   0  0  0  0  0  0  0  0  0  0  0  0
   78.9246   42.4261   42.2487 C   0  0  0  0  0  0  0  0  0  0  0  0
   74.4552   40.7536   38.5790 C   0  0  2  0  0  0  0  0  0  0  0  0
   73.3659   41.5173   39.3026 C   0  0  0  0  0  0  0  0  0  0  0  0
   73.6164   42.4232   40.0779 O   0  0  0  0  0  0  0  0  0  0  0  0
   72.0751   41.1673   38.9922 N   0  0  0  0  0  0  0  0  0  0  0  0
   71.6512   40.0960   38.2442 C   0  0  0  0  0  0  0  0  0  0  0  0
   70.4701   39.9368   37.9708 O   0  0  0  0  0  0  0  0  0  0  0  0
   72.7433   39.1690   37.7421 C   0  0  0  0  0  0  0  0  0  0  0  0
   74.0306   39.2901   38.5542 C   0  0  0  0  0  0  0  0  0  0  0  0
   78.5890   40.2264   43.7072 H   0  0  0  0  0  0  0  0  0  0  0  0
   77.2306   39.6036   42.8045 H   0  0  0  0  0  0  0  0  0  0  0  0
   78.4379   44.2446   39.4004 H   0  0  0  0  0  0  0  0  0  0  0  0
   79.8021   44.2347   41.4839 H   0  0  0  0  0  0  0  0  0  0  0  0
   79.5146   42.4593   43.1593 H   0  0  0  0  0  0  0  0  0  0  0  0
   74.4911   41.1669   37.5643 H   0  0  0  0  0  0  0  0  0  0  0  0
   71.3552   41.7754   39.3639 H   0  0  0  0  0  0  0  0  0  0  0  0
   72.3729   38.1403   37.7915 H   0  0  0  0  0  0  0  0  0  0  0  0
   72.9297   39.4092   36.6897 H   0  0  0  0  0  0  0  0  0  0  0  0
   73.8499   38.9203   39.5697 H   0  0  0  0  0  0  0  0  0  0  0  0
   74.8121   38.6600   38.1213 H   0  0  0  0  0  0  0  0  0  0  0  0
  1  2  1  0  0  0  0
  1 21  1  0  0  0  0
  1 22  1  0  0  0  0
  2  3  1  0  0  0  0
  2 12  2  0  0  0  0
  3  9  2  0  0  0  0
  3  4  1  0  0  0  0
  4  5  2  0  0  0  0
  4  6  1  0  0  0  0
  6  7  1  0  0  0  0
 13  6  1  0  0  0  0
  7  8  2  0  0  0  0
  7  9  1  0  0  0  0
  9 10  1  0  0  0  0
 10 23  1  0  0  0  0
 10 11  2  0  0  0  0
 11 12  1  0  0  0  0
 11 24  1  0  0  0  0
 12 25  1  0  0  0  0
 13 26  1  0  0  0  0
 13 14  1  0  0  0  0
 13 20  1  0  0  0  0
 14 15  2  0  0  0  0
 14 16  1  0  0  0  0
 16 27  1  0  0  0  0
 16 17  1  0  0  0  0
 17 18  2  0  0  0  0
 17 19  1  0  0  0  0
 19 28  1  0  0  0  0
 19 29  1  0  0  0  0
 19 20  1  0  0  0  0
 20 30  1  0  0  0  0
 20 31  1  0  0  0  0
M  ZZC   1 n1
M  ZZC   2 c1
M  ZZC   3 c2
M  ZZC   4 c3
M  ZZC   5 o1
M  ZZC   6 n2
M  ZZC   7 c4
M  ZZC   8 o2
M  ZZC   9 c5
M  ZZC  10 c6
M  ZZC  11 c7
M  ZZC  12 c8
M  ZZC  13 c9
M  ZZC  14 c10
M  ZZC  15 o3
M  ZZC  16 n3
M  ZZC  17 c11
M  ZZC  18 o4
M  ZZC  19 c12
M  ZZC  20 c13
M  ZZC  21 h11
M  ZZC  22 h12
M  ZZC  23 h61
M  ZZC  24 h71
M  ZZC  25 h81
M  ZZC  26 h91
M  ZZC  27 h31
M  ZZC  28 h121
M  ZZC  29 h122
M  ZZC  30 h131
M  ZZC  31 h132
M  ZZM   1 40
M  ZZI   1 224
M  ZZM   2 37
M  ZZI   2 124
M  ZZM   3 37
M  ZZI   3 124
M  ZZM   4 3
M  ZZI   4 121
M  ZZM   5 7
M  ZZI   5 81
M  ZZM   6 10
M  ZZI   6 192
M  ZZM   7 3
M  ZZI   7 121
M  ZZM   8 7
M  ZZI   8 81
M  ZZM   9 37
M  ZZI   9 124
M  ZZM  10 37
M  ZZI  10 125
M  ZZM  11 37
M  ZZI  11 125
M  ZZM  12 37
M  ZZI  12 125
M  ZZM  13 1
M  ZZI  13 113
M  ZZM  14 3
M  ZZI  14 121
M  ZZM  15 7
M  ZZI  15 81
M  ZZM  16 10
M  ZZI  16 191
M  ZZM  17 3
M  ZZI  17 121
M  ZZM  18 7
M  ZZI  18 81
M  ZZM  19 1
M  ZZI  19 112
M  ZZM  20 1
M  ZZI  20 112
M  ZZM  21 28
M  ZZI  21 11
M  ZZM  22 28
M  ZZI  22 11
M  ZZM  23 5
M  ZZI  23 1
M  ZZM  24 5
M  ZZI  24 1
M  ZZM  25 5
M  ZZI  25 1
M  ZZM  26 5
M  ZZI  26 1
M  ZZM  27 28
M  ZZI  27 11
M  ZZM  28 5
M  ZZI  28 1
M  ZZM  29 5
M  ZZI  29 1
M  ZZM  30 5
M  ZZI  30 1
M  ZZM  31 5
M  ZZI  31 1
M  END
> <IX>
1

> <NAME>
Cereblon_2EUF_8.pdb

> <Score>
-15.398233

> <Natom>
31

> <Nflex>
1

> <Hbond>
-4.485647

> <Hphob>
-3.376437

> <VwInt>
-23.582239

> <Dsolv>
17.166396

> <SolEl>
8.274726

> <Eintl>
4.764652

> <RecConf>
ND

> <projPath>
Cereblon_maps/

> <NAME_>
Cereblon_2EUF_8.pdb

$$$$
