Cereblon_3HLL_1.pdb
  MOLSOFT 04032206203D

 31 33  0  0  1  0  0  0  0  0999 V2000
   78.8154   41.6708   43.8008 N   0  0  0  0  0  0  0  0  0  0  0  0
   78.8919   42.4298   42.6229 C   0  0  0  0  0  0  0  0  0  0  0  0
   78.0904   42.1602   41.5269 C   0  0  0  0  0  0  0  0  0  0  0  0
   77.1650   41.0524   41.3245 C   0  0  0  0  0  0  0  0  0  0  0  0
   76.9855   40.1682   42.1486 O   0  0  0  0  0  0  0  0  0  0  0  0
   76.6217   41.2199   40.0658 N   0  0  0  0  0  0  0  0  0  0  0  0
   77.1526   42.3333   39.4461 C   0  0  0  0  0  0  0  0  0  0  0  0
   76.9468   42.7456   38.3120 O   0  0  0  0  0  0  0  0  0  0  0  0
   78.0879   42.9284   40.4030 C   0  0  0  0  0  0  0  0  0  0  0  0
   78.9037   44.0342   40.2797 C   0  0  0  0  0  0  0  0  0  0  0  0
   79.7259   44.3307   41.3618 C   0  0  0  0  0  0  0  0  0  0  0  0
   79.7108   43.5502   42.5196 C   0  0  0  0  0  0  0  0  0  0  0  0
   75.6090   40.3794   39.4230 C   0  0  2  0  0  0  0  0  0  0  0  0
   74.2372   40.9621   39.7163 C   0  0  0  0  0  0  0  0  0  0  0  0
   74.0690   42.1403   39.9828 O   0  0  0  0  0  0  0  0  0  0  0  0
   73.1745   40.1031   39.5801 N   0  0  0  0  0  0  0  0  0  0  0  0
   73.1987   38.7660   39.2655 C   0  0  0  0  0  0  0  0  0  0  0  0
   72.1715   38.1219   39.1300 O   0  0  0  0  0  0  0  0  0  0  0  0
   74.5633   38.1558   39.0490 C   0  0  0  0  0  0  0  0  0  0  0  0
   75.6358   38.9075   39.8177 C   0  0  0  0  0  0  0  0  0  0  0  0
   79.5606   41.7327   44.4914 H   0  0  0  0  0  0  0  0  0  0  0  0
   78.2406   40.8263   43.7955 H   0  0  0  0  0  0  0  0  0  0  0  0
   78.8967   44.6410   39.3820 H   0  0  0  0  0  0  0  0  0  0  0  0
   80.3831   45.1917   41.3122 H   0  0  0  0  0  0  0  0  0  0  0  0
   80.3520   43.8233   43.3522 H   0  0  0  0  0  0  0  0  0  0  0  0
   75.7537   40.4787   38.3461 H   0  0  0  0  0  0  0  0  0  0  0  0
   72.2588   40.5101   39.7253 H   0  0  0  0  0  0  0  0  0  0  0  0
   74.5358   37.1128   39.3800 H   0  0  0  0  0  0  0  0  0  0  0  0
   74.7695   38.1640   37.9743 H   0  0  0  0  0  0  0  0  0  0  0  0
   75.4416   38.7874   40.8875 H   0  0  0  0  0  0  0  0  0  0  0  0
   76.6209   38.4734   39.6190 H   0  0  0  0  0  0  0  0  0  0  0  0
  1  2  1  0  0  0  0
  1 21  1  0  0  0  0
  1 22  1  0  0  0  0
  2  3  1  0  0  0  0
  2 12  2  0  0  0  0
  3  9  2  0  0  0  0
  3  4  1  0  0  0  0
  4  5  2  0  0  0  0
  4  6  1  0  0  0  0
  6  7  1  0  0  0  0
 13  6  1  0  0  0  0
  7  8  2  0  0  0  0
  7  9  1  0  0  0  0
  9 10  1  0  0  0  0
 10 23  1  0  0  0  0
 10 11  2  0  0  0  0
 11 12  1  0  0  0  0
 11 24  1  0  0  0  0
 12 25  1  0  0  0  0
 13 26  1  0  0  0  0
 13 14  1  0  0  0  0
 13 20  1  0  0  0  0
 14 15  2  0  0  0  0
 14 16  1  0  0  0  0
 16 27  1  0  0  0  0
 16 17  1  0  0  0  0
 17 18  2  0  0  0  0
 17 19  1  0  0  0  0
 19 28  1  0  0  0  0
 19 29  1  0  0  0  0
 19 20  1  0  0  0  0
 20 30  1  0  0  0  0
 20 31  1  0  0  0  0
M  ZZC   1 n1
M  ZZC   2 c1
M  ZZC   3 c2
M  ZZC   4 c3
M  ZZC   5 o1
M  ZZC   6 n2
M  ZZC   7 c4
M  ZZC   8 o2
M  ZZC   9 c5
M  ZZC  10 c6
M  ZZC  11 c7
M  ZZC  12 c8
M  ZZC  13 c9
M  ZZC  14 c10
M  ZZC  15 o3
M  ZZC  16 n3
M  ZZC  17 c11
M  ZZC  18 o4
M  ZZC  19 c12
M  ZZC  20 c13
M  ZZC  21 h11
M  ZZC  22 h12
M  ZZC  23 h61
M  ZZC  24 h71
M  ZZC  25 h81
M  ZZC  26 h91
M  ZZC  27 h31
M  ZZC  28 h121
M  ZZC  29 h122
M  ZZC  30 h131
M  ZZC  31 h132
M  ZZM   1 40
M  ZZI   1 224
M  ZZM   2 37
M  ZZI   2 124
M  ZZM   3 37
M  ZZI   3 124
M  ZZM   4 3
M  ZZI   4 121
M  ZZM   5 7
M  ZZI   5 81
M  ZZM   6 10
M  ZZI   6 192
M  ZZM   7 3
M  ZZI   7 121
M  ZZM   8 7
M  ZZI   8 81
M  ZZM   9 37
M  ZZI   9 124
M  ZZM  10 37
M  ZZI  10 125
M  ZZM  11 37
M  ZZI  11 125
M  ZZM  12 37
M  ZZI  12 125
M  ZZM  13 1
M  ZZI  13 113
M  ZZM  14 3
M  ZZI  14 121
M  ZZM  15 7
M  ZZI  15 81
M  ZZM  16 10
M  ZZI  16 191
M  ZZM  17 3
M  ZZI  17 121
M  ZZM  18 7
M  ZZI  18 81
M  ZZM  19 1
M  ZZI  19 112
M  ZZM  20 1
M  ZZI  20 112
M  ZZM  21 28
M  ZZI  21 11
M  ZZM  22 28
M  ZZI  22 11
M  ZZM  23 5
M  ZZI  23 1
M  ZZM  24 5
M  ZZI  24 1
M  ZZM  25 5
M  ZZI  25 1
M  ZZM  26 5
M  ZZI  26 1
M  ZZM  27 28
M  ZZI  27 11
M  ZZM  28 5
M  ZZI  28 1
M  ZZM  29 5
M  ZZI  29 1
M  ZZM  30 5
M  ZZI  30 1
M  ZZM  31 5
M  ZZI  31 1
M  END
> <IX>
1

> <NAME>
Cereblon_3HLL_1.pdb

> <Score>
-18.282397

> <Natom>
31

> <Nflex>
1

> <Hbond>
-3.70808

> <Hphob>
-3.597506

> <VwInt>
-24.269511

> <Dsolv>
15.253658

> <SolEl>
6.990777

> <Eintl>
1.874548

> <RecConf>
ND

> <projPath>
Cereblon_maps/

> <NAME_>
Cereblon_3HLL_1.pdb

$$$$
