Cereblon_5V5Y_3.pdb
  MOLSOFT 04032206273D

 31 33  0  0  1  0  0  0  0  0999 V2000
   65.7531   38.2151   40.7317 N   0  0  0  0  0  0  0  0  0  0  0  0
   66.3323   37.6883   39.5673 C   0  0  0  0  0  0  0  0  0  0  0  0
   67.6686   37.8678   39.2388 C   0  0  0  0  0  0  0  0  0  0  0  0
   68.7062   38.6763   39.8853 C   0  0  0  0  0  0  0  0  0  0  0  0
   68.5233   39.3915   40.8619 O   0  0  0  0  0  0  0  0  0  0  0  0
   69.8605   38.4973   39.1463 N   0  0  0  0  0  0  0  0  0  0  0  0
   69.6247   37.6899   38.0526 C   0  0  0  0  0  0  0  0  0  0  0  0
   70.3720   37.3605   37.1433 O   0  0  0  0  0  0  0  0  0  0  0  0
   68.2258   37.2794   38.1411 C   0  0  0  0  0  0  0  0  0  0  0  0
   67.5092   36.4559   37.2941 C   0  0  0  0  0  0  0  0  0  0  0  0
   66.1807   36.2285   37.6223 C   0  0  0  0  0  0  0  0  0  0  0  0
   65.6119   36.8214   38.7490 C   0  0  0  0  0  0  0  0  0  0  0  0
   71.0975   39.2340   39.4283 C   0  0  2  0  0  0  0  0  0  0  0  0
   71.0655   40.5504   38.6802 C   0  0  0  0  0  0  0  0  0  0  0  0
   70.0836   40.9580   38.0778 O   0  0  0  0  0  0  0  0  0  0  0  0
   72.2309   41.2710   38.7766 N   0  0  0  0  0  0  0  0  0  0  0  0
   73.4233   40.8582   39.3195 C   0  0  0  0  0  0  0  0  0  0  0  0
   74.2897   41.6574   39.6411 O   0  0  0  0  0  0  0  0  0  0  0  0
   73.5765   39.3664   39.5555 C   0  0  0  0  0  0  0  0  0  0  0  0
   72.4014   38.5439   39.0440 C   0  0  0  0  0  0  0  0  0  0  0  0
   64.7366   38.1956   40.7923 H   0  0  0  0  0  0  0  0  0  0  0  0
   66.2299   38.9762   41.2162 H   0  0  0  0  0  0  0  0  0  0  0  0
   67.9624   36.0020   36.4176 H   0  0  0  0  0  0  0  0  0  0  0  0
   65.5782   35.5787   36.9946 H   0  0  0  0  0  0  0  0  0  0  0  0
   64.5736   36.6080   38.9840 H   0  0  0  0  0  0  0  0  0  0  0  0
   71.0965   39.4723   40.4992 H   0  0  0  0  0  0  0  0  0  0  0  0
   72.1923   42.2328   38.4677 H   0  0  0  0  0  0  0  0  0  0  0  0
   74.5020   39.0319   39.0761 H   0  0  0  0  0  0  0  0  0  0  0  0
   73.6856   39.2044   40.6281 H   0  0  0  0  0  0  0  0  0  0  0  0
   72.4862   38.4510   37.9556 H   0  0  0  0  0  0  0  0  0  0  0  0
   72.4448   37.5308   39.4574 H   0  0  0  0  0  0  0  0  0  0  0  0
  1  2  1  0  0  0  0
  1 21  1  0  0  0  0
  1 22  1  0  0  0  0
  2  3  1  0  0  0  0
  2 12  2  0  0  0  0
  3  9  2  0  0  0  0
  3  4  1  0  0  0  0
  4  5  2  0  0  0  0
  4  6  1  0  0  0  0
  6  7  1  0  0  0  0
 13  6  1  0  0  0  0
  7  8  2  0  0  0  0
  7  9  1  0  0  0  0
  9 10  1  0  0  0  0
 10 23  1  0  0  0  0
 10 11  2  0  0  0  0
 11 12  1  0  0  0  0
 11 24  1  0  0  0  0
 12 25  1  0  0  0  0
 13 26  1  0  0  0  0
 13 14  1  0  0  0  0
 13 20  1  0  0  0  0
 14 15  2  0  0  0  0
 14 16  1  0  0  0  0
 16 27  1  0  0  0  0
 16 17  1  0  0  0  0
 17 18  2  0  0  0  0
 17 19  1  0  0  0  0
 19 28  1  0  0  0  0
 19 29  1  0  0  0  0
 19 20  1  0  0  0  0
 20 30  1  0  0  0  0
 20 31  1  0  0  0  0
M  ZZC   1 n1
M  ZZC   2 c1
M  ZZC   3 c2
M  ZZC   4 c3
M  ZZC   5 o1
M  ZZC   6 n2
M  ZZC   7 c4
M  ZZC   8 o2
M  ZZC   9 c5
M  ZZC  10 c6
M  ZZC  11 c7
M  ZZC  12 c8
M  ZZC  13 c9
M  ZZC  14 c10
M  ZZC  15 o3
M  ZZC  16 n3
M  ZZC  17 c11
M  ZZC  18 o4
M  ZZC  19 c12
M  ZZC  20 c13
M  ZZC  21 h11
M  ZZC  22 h12
M  ZZC  23 h61
M  ZZC  24 h71
M  ZZC  25 h81
M  ZZC  26 h91
M  ZZC  27 h31
M  ZZC  28 h121
M  ZZC  29 h122
M  ZZC  30 h131
M  ZZC  31 h132
M  ZZM   1 40
M  ZZI   1 224
M  ZZM   2 37
M  ZZI   2 124
M  ZZM   3 37
M  ZZI   3 124
M  ZZM   4 3
M  ZZI   4 121
M  ZZM   5 7
M  ZZI   5 81
M  ZZM   6 10
M  ZZI   6 192
M  ZZM   7 3
M  ZZI   7 121
M  ZZM   8 7
M  ZZI   8 81
M  ZZM   9 37
M  ZZI   9 124
M  ZZM  10 37
M  ZZI  10 125
M  ZZM  11 37
M  ZZI  11 125
M  ZZM  12 37
M  ZZI  12 125
M  ZZM  13 1
M  ZZI  13 113
M  ZZM  14 3
M  ZZI  14 121
M  ZZM  15 7
M  ZZI  15 81
M  ZZM  16 10
M  ZZI  16 191
M  ZZM  17 3
M  ZZI  17 121
M  ZZM  18 7
M  ZZI  18 81
M  ZZM  19 1
M  ZZI  19 112
M  ZZM  20 1
M  ZZI  20 112
M  ZZM  21 28
M  ZZI  21 11
M  ZZM  22 28
M  ZZI  22 11
M  ZZM  23 5
M  ZZI  23 1
M  ZZM  24 5
M  ZZI  24 1
M  ZZM  25 5
M  ZZI  25 1
M  ZZM  26 5
M  ZZI  26 1
M  ZZM  27 28
M  ZZI  27 11
M  ZZM  28 5
M  ZZI  28 1
M  ZZM  29 5
M  ZZI  29 1
M  ZZM  30 5
M  ZZI  30 1
M  ZZM  31 5
M  ZZI  31 1
M  END
> <IX>
1

> <NAME>
Cereblon_5V5Y_3.pdb

> <Score>
-17.620038

> <Natom>
31

> <Nflex>
1

> <Hbond>
-6.836908

> <Hphob>
-2.763137

> <VwInt>
-17.632579

> <Dsolv>
17.257982

> <SolEl>
5.332891

> <Eintl>
3.496711

> <RecConf>
ND

> <projPath>
Cereblon_maps/

> <NAME_>
Cereblon_5V5Y_3.pdb

$$$$
