Cereblon_4CI1_2.pdb
  MOLSOFT 04032206233D

 33 35  0  0  1  0  0  0  0  0999 V2000
   68.5708   54.6146    5.2287 O   0  0  0  0  0  0  0  0  0  0  0  0
   69.5101   55.3853    5.3425 C   0  0  0  0  0  0  0  0  0  0  0  0
   70.7893   55.0770    4.9624 N   0  0  0  0  0  0  0  0  0  0  0  0
   69.3222   56.7610    5.8663 C   0  0  0  0  0  0  0  0  0  0  0  0
   70.2464   57.2802    6.7721 C   0  0  0  0  0  0  0  0  0  0  0  0
   70.0515   58.5880    7.1650 C   0  0  0  0  0  0  0  0  0  0  0  0
   70.8280   59.3866    8.1050 C   0  0  0  0  0  0  0  0  0  0  0  0
   71.7687   58.9520    8.7532 O   0  0  0  0  0  0  0  0  0  0  0  0
   70.2812   60.6523    8.0775 N   0  0  0  0  0  0  0  0  0  0  0  0
   69.2413   60.7227    7.1728 C   0  0  0  0  0  0  0  0  0  0  0  0
   68.6181   61.7064    6.7997 O   0  0  0  0  0  0  0  0  0  0  0  0
   69.0510   59.3641    6.6621 C   0  0  0  0  0  0  0  0  0  0  0  0
   68.0947   58.8559    5.7993 C   0  0  0  0  0  0  0  0  0  0  0  0
   68.2283   57.5195    5.4277 C   0  0  0  0  0  0  0  0  0  0  0  0
   70.8029   61.8055    8.8120 C   0  0  2  0  0  0  0  0  0  0  0  0
   72.1085   62.2569    8.1670 C   0  0  0  0  0  0  0  0  0  0  0  0
   72.3534   62.1152    6.9776 O   0  0  0  0  0  0  0  0  0  0  0  0
   72.9864   62.9136    8.9986 N   0  0  0  0  0  0  0  0  0  0  0  0
   72.8414   63.2138   10.3327 C   0  0  0  0  0  0  0  0  0  0  0  0
   73.6919   63.8351   10.9491 O   0  0  0  0  0  0  0  0  0  0  0  0
   71.5463   62.7808   10.9738 C   0  0  0  0  0  0  0  0  0  0  0  0
   71.0085   61.5335   10.2996 C   0  0  0  0  0  0  0  0  0  0  0  0
   70.9866   54.1559    4.5901 H   0  0  0  0  0  0  0  0  0  0  0  0
   71.5395   55.7616    4.9464 H   0  0  0  0  0  0  0  0  0  0  0  0
   71.0845   56.7036    7.1484 H   0  0  0  0  0  0  0  0  0  0  0  0
   67.2814   59.4728    5.4263 H   0  0  0  0  0  0  0  0  0  0  0  0
   67.4960   57.0762    4.7604 H   0  0  0  0  0  0  0  0  0  0  0  0
   70.0929   62.6318    8.6886 H   0  0  0  0  0  0  0  0  0  0  0  0
   73.8489   63.2238    8.5700 H   0  0  0  0  0  0  0  0  0  0  0  0
   71.7300   62.5801   12.0341 H   0  0  0  0  0  0  0  0  0  0  0  0
   70.8313   63.6072   10.9029 H   0  0  0  0  0  0  0  0  0  0  0  0
   70.0632   61.2347   10.7625 H   0  0  0  0  0  0  0  0  0  0  0  0
   71.7149   60.7129   10.4619 H   0  0  0  0  0  0  0  0  0  0  0  0
  1  2  2  0  0  0  0
  2  4  1  0  0  0  0
  2  3  1  0  0  0  0
  3 23  1  0  0  0  0
  3 24  1  0  0  0  0
  4  5  1  0  0  0  0
  4 14  2  0  0  0  0
  5 25  1  0  0  0  0
  5  6  2  0  0  0  0
  6 12  1  0  0  0  0
  6  7  1  0  0  0  0
  7  8  2  0  0  0  0
  7  9  1  0  0  0  0
  9 10  1  0  0  0  0
 15  9  1  0  0  0  0
 10 11  2  0  0  0  0
 10 12  1  0  0  0  0
 12 13  2  0  0  0  0
 13 14  1  0  0  0  0
 13 26  1  0  0  0  0
 14 27  1  0  0  0  0
 15 28  1  0  0  0  0
 15 16  1  0  0  0  0
 15 22  1  0  0  0  0
 16 17  2  0  0  0  0
 16 18  1  0  0  0  0
 18 29  1  0  0  0  0
 18 19  1  0  0  0  0
 19 20  2  0  0  0  0
 19 21  1  0  0  0  0
 21 30  1  0  0  0  0
 21 31  1  0  0  0  0
 21 22  1  0  0  0  0
 22 32  1  0  0  0  0
 22 33  1  0  0  0  0
M  ZZC   1 o1
M  ZZC   2 c1
M  ZZC   3 n1
M  ZZC   4 c2
M  ZZC   5 c3
M  ZZC   6 c4
M  ZZC   7 c5
M  ZZC   8 o2
M  ZZC   9 n2
M  ZZC  10 c6
M  ZZC  11 o3
M  ZZC  12 c7
M  ZZC  13 c8
M  ZZC  14 c9
M  ZZC  15 c10
M  ZZC  16 c11
M  ZZC  17 o4
M  ZZC  18 n3
M  ZZC  19 c12
M  ZZC  20 o5
M  ZZC  21 c13
M  ZZC  22 c14
M  ZZC  23 h11
M  ZZC  24 h12
M  ZZC  25 h31
M  ZZC  26 h81
M  ZZC  27 h91
M  ZZC  28 h101
M  ZZC  29 h01
M  ZZC  30 h131
M  ZZC  31 h132
M  ZZC  32 h141
M  ZZC  33 h142
M  ZZM   1 7
M  ZZI   1 81
M  ZZM   2 3
M  ZZI   2 121
M  ZZM   3 10
M  ZZI   3 212
M  ZZM   4 37
M  ZZI   4 124
M  ZZM   5 37
M  ZZI   5 125
M  ZZM   6 37
M  ZZI   6 124
M  ZZM   7 3
M  ZZI   7 121
M  ZZM   8 7
M  ZZI   8 81
M  ZZM   9 10
M  ZZI   9 192
M  ZZM  10 3
M  ZZI  10 121
M  ZZM  11 7
M  ZZI  11 81
M  ZZM  12 37
M  ZZI  12 124
M  ZZM  13 37
M  ZZI  13 125
M  ZZM  14 37
M  ZZI  14 125
M  ZZM  15 1
M  ZZI  15 113
M  ZZM  16 3
M  ZZI  16 121
M  ZZM  17 7
M  ZZI  17 81
M  ZZM  18 10
M  ZZI  18 191
M  ZZM  19 3
M  ZZI  19 121
M  ZZM  20 7
M  ZZI  20 81
M  ZZM  21 1
M  ZZI  21 112
M  ZZM  22 1
M  ZZI  22 112
M  ZZM  23 28
M  ZZI  23 11
M  ZZM  24 28
M  ZZI  24 11
M  ZZM  25 5
M  ZZI  25 1
M  ZZM  26 5
M  ZZI  26 1
M  ZZM  27 5
M  ZZI  27 1
M  ZZM  28 5
M  ZZI  28 1
M  ZZM  29 28
M  ZZI  29 11
M  ZZM  30 5
M  ZZI  30 1
M  ZZM  31 5
M  ZZI  31 1
M  ZZM  32 5
M  ZZI  32 1
M  ZZM  33 5
M  ZZI  33 1
M  END
> <IX>
1

> <NAME>
Cereblon_4CI1_2.pdb

> <Score>
-12.352031

> <Natom>
33

> <Nflex>
1

> <Hbond>
-2.353933

> <Hphob>
-3.22959

> <VwInt>
-24.344946

> <Dsolv>
14.887662

> <SolEl>
10.675085

> <Eintl>
2.168144

> <RecConf>
ND

> <projPath>
Cereblon_maps/

> <NAME_>
Cereblon_4CI1_2.pdb

$$$$
