Cereblon_1EJ1_2.pdb
  MOLSOFT 04032206193D

 34 36  0  0  1  0  0  0  0  0999 V2000
   76.6509   37.8495   40.7400 C   0  0  0  0  0  0  0  0  0  0  0  0
   76.3387   39.0043   39.8000 C   0  0  2  0  0  0  0  0  0  0  0  0
   76.2643   40.2960   40.5190 C   0  0  0  0  0  0  0  0  0  0  0  0
   75.3036   41.1671   39.8080 C   0  0  0  0  0  0  0  0  0  0  0  0
   75.0962   42.3487   40.0300 O   0  0  0  0  0  0  0  0  0  0  0  0
   74.7022   40.3713   38.8582 N   0  0  0  0  0  0  0  0  0  0  0  0
   73.6382   40.8045   37.9450 C   0  0  2  0  0  0  0  0  0  0  0  0
   74.0584   42.0449   37.1521 C   0  0  0  0  0  0  0  0  0  0  0  0
   75.2224   42.3202   36.8945 O   0  0  0  0  0  0  0  0  0  0  0  0
   73.0281   42.8164   36.6656 N   0  0  0  0  0  0  0  0  0  0  0  0
   71.6740   42.6356   36.8181 C   0  0  0  0  0  0  0  0  0  0  0  0
   70.8582   43.3850   36.3027 O   0  0  0  0  0  0  0  0  0  0  0  0
   71.2553   41.4270   37.6226 C   0  0  0  0  0  0  0  0  0  0  0  0
   72.3089   41.0386   38.6493 C   0  0  0  0  0  0  0  0  0  0  0  0
   75.0032   38.9716   39.0779 C   0  0  0  0  0  0  0  0  0  0  0  0
   76.9074   40.5555   41.6667 C   0  0  0  0  0  0  0  0  0  0  0  0
   77.7321   39.5132   42.3546 C   0  0  0  0  0  0  0  0  0  0  0  0
   77.8837   38.2035   41.5725 C   0  0  0  0  0  0  0  0  0  0  0  0
   75.7984   37.6495   41.3943 H   0  0  0  0  0  0  0  0  0  0  0  0
   76.8321   36.9371   40.1630 H   0  0  0  0  0  0  0  0  0  0  0  0
   77.1467   39.0929   39.0699 H   0  0  0  0  0  0  0  0  0  0  0  0
   73.5165   40.0069   37.2030 H   0  0  0  0  0  0  0  0  0  0  0  0
   73.3020   43.6254   36.1250 H   0  0  0  0  0  0  0  0  0  0  0  0
   70.3141   41.6586   38.1289 H   0  0  0  0  0  0  0  0  0  0  0  0
   71.0685   40.6038   36.9253 H   0  0  0  0  0  0  0  0  0  0  0  0
   71.9917   40.1339   39.1780 H   0  0  0  0  0  0  0  0  0  0  0  0
   72.4097   41.8207   39.4087 H   0  0  0  0  0  0  0  0  0  0  0  0
   75.0394   38.4271   38.1304 H   0  0  0  0  0  0  0  0  0  0  0  0
   74.2065   38.5458   39.6998 H   0  0  0  0  0  0  0  0  0  0  0  0
   76.8155   41.5164   42.1568 H   0  0  0  0  0  0  0  0  0  0  0  0
   78.7189   39.9185   42.5893 H   0  0  0  0  0  0  0  0  0  0  0  0
   77.2604   39.2983   43.3170 H   0  0  0  0  0  0  0  0  0  0  0  0
   78.1167   37.3881   42.2644 H   0  0  0  0  0  0  0  0  0  0  0  0
   78.7475   38.2894   40.9030 H   0  0  0  0  0  0  0  0  0  0  0  0
  1 19  1  0  0  0  0
  1 20  1  0  0  0  0
  1 18  1  0  0  0  0
  2  1  1  0  0  0  0
  2  3  1  0  0  0  0
  2 21  1  0  0  0  0
  2 15  1  0  0  0  0
  3 16  2  0  0  0  0
  3  4  1  0  0  0  0
  4  6  1  0  0  0  0
  4  5  2  0  0  0  0
  6 15  1  0  0  0  0
  7  6  1  0  0  0  0
  7 22  1  0  0  0  0
  7  8  1  0  0  0  0
  7 14  1  0  0  0  0
  8  9  2  0  0  0  0
  8 10  1  0  0  0  0
 10 23  1  0  0  0  0
 10 11  1  0  0  0  0
 11 12  2  0  0  0  0
 11 13  1  0  0  0  0
 13 24  1  0  0  0  0
 13 25  1  0  0  0  0
 13 14  1  0  0  0  0
 14 26  1  0  0  0  0
 14 27  1  0  0  0  0
 15 28  1  0  0  0  0
 15 29  1  0  0  0  0
 16 17  1  0  0  0  0
 16 30  1  0  0  0  0
 17 18  1  0  0  0  0
 17 31  1  0  0  0  0
 17 32  1  0  0  0  0
 18 33  1  0  0  0  0
 18 34  1  0  0  0  0
M  ZZC   1 c1
M  ZZC   2 c2
M  ZZC   3 c3
M  ZZC   4 c4
M  ZZC   5 o1
M  ZZC   6 n1
M  ZZC   7 c5
M  ZZC   8 c6
M  ZZC   9 o2
M  ZZC  10 n2
M  ZZC  11 c7
M  ZZC  12 o3
M  ZZC  13 c8
M  ZZC  14 c9
M  ZZC  15 c10
M  ZZC  16 c11
M  ZZC  17 c12
M  ZZC  18 c13
M  ZZC  19 h11
M  ZZC  20 h12
M  ZZC  21 h21
M  ZZC  22 h51
M  ZZC  23 h01
M  ZZC  24 h81
M  ZZC  25 h82
M  ZZC  26 h91
M  ZZC  27 h92
M  ZZC  28 h101
M  ZZC  29 h102
M  ZZC  30 h111
M  ZZC  31 h121
M  ZZC  32 h122
M  ZZC  33 h131
M  ZZC  34 h132
M  ZZM   1 1
M  ZZI   1 112
M  ZZM   2 1
M  ZZI   2 113
M  ZZM   3 2
M  ZZI   3 120
M  ZZM   4 3
M  ZZI   4 121
M  ZZM   5 7
M  ZZI   5 81
M  ZZM   6 10
M  ZZI   6 192
M  ZZM   7 1
M  ZZI   7 113
M  ZZM   8 3
M  ZZI   8 121
M  ZZM   9 7
M  ZZI   9 81
M  ZZM  10 10
M  ZZI  10 191
M  ZZM  11 3
M  ZZI  11 121
M  ZZM  12 7
M  ZZI  12 81
M  ZZM  13 1
M  ZZI  13 112
M  ZZM  14 1
M  ZZI  14 112
M  ZZM  15 1
M  ZZI  15 112
M  ZZM  16 2
M  ZZI  16 120
M  ZZM  17 1
M  ZZI  17 112
M  ZZM  18 1
M  ZZI  18 112
M  ZZM  19 5
M  ZZI  19 1
M  ZZM  20 5
M  ZZI  20 1
M  ZZM  21 5
M  ZZI  21 1
M  ZZM  22 5
M  ZZI  22 1
M  ZZM  23 28
M  ZZI  23 11
M  ZZM  24 5
M  ZZI  24 1
M  ZZM  25 5
M  ZZI  25 1
M  ZZM  26 5
M  ZZI  26 1
M  ZZM  27 5
M  ZZI  27 1
M  ZZM  28 5
M  ZZI  28 1
M  ZZM  29 5
M  ZZI  29 1
M  ZZM  30 5
M  ZZI  30 1
M  ZZM  31 5
M  ZZI  31 1
M  ZZM  32 5
M  ZZI  32 1
M  ZZM  33 5
M  ZZI  33 1
M  ZZM  34 5
M  ZZI  34 1
M  END
> <IX>
1

> <NAME>
Cereblon_1EJ1_2.pdb

> <Score>
-11.365207

> <Natom>
34

> <Nflex>
1

> <Hbond>
-4.486741

> <Hphob>
-3.725507

> <VwInt>
-15.004681

> <Dsolv>
13.982218

> <SolEl>
7.08281

> <Eintl>
2.876167

> <RecConf>
ND

> <projPath>
Cereblon_maps/

> <NAME_>
Cereblon_1EJ1_2.pdb

$$$$
