Cereblon_6NTU_1.pdb
  MOLSOFT 04032206283D

 31 33  0  0  1  0  0  0  0  0999 V2000
   78.7202   41.7152   43.8930 N   0  0  0  0  0  0  0  0  0  0  0  0
   78.7909   42.4915   42.7254 C   0  0  0  0  0  0  0  0  0  0  0  0
   78.0685   42.1728   41.5876 C   0  0  0  0  0  0  0  0  0  0  0  0
   77.1570   41.0579   41.3669 C   0  0  0  0  0  0  0  0  0  0  0  0
   76.9450   40.1923   42.2025 O   0  0  0  0  0  0  0  0  0  0  0  0
   76.6564   41.2069   40.0890 N   0  0  0  0  0  0  0  0  0  0  0  0
   77.1952   42.3191   39.4751 C   0  0  0  0  0  0  0  0  0  0  0  0
   76.9970   42.7374   38.3419 O   0  0  0  0  0  0  0  0  0  0  0  0
   78.1100   42.9188   40.4488 C   0  0  0  0  0  0  0  0  0  0  0  0
   78.9321   44.0211   40.3352 C   0  0  0  0  0  0  0  0  0  0  0  0
   79.7223   44.3290   41.4373 C   0  0  0  0  0  0  0  0  0  0  0  0
   79.6542   43.5774   42.6124 C   0  0  0  0  0  0  0  0  0  0  0  0
   75.6451   40.3692   39.4409 C   0  0  2  0  0  0  0  0  0  0  0  0
   74.2724   40.9551   39.7266 C   0  0  0  0  0  0  0  0  0  0  0  0
   74.1047   42.1363   39.9807 O   0  0  0  0  0  0  0  0  0  0  0  0
   73.2089   40.0952   39.6008 N   0  0  0  0  0  0  0  0  0  0  0  0
   73.2309   38.7563   39.2940 C   0  0  0  0  0  0  0  0  0  0  0  0
   72.2042   38.1085   39.1730 O   0  0  0  0  0  0  0  0  0  0  0  0
   74.5942   38.1487   39.0635 C   0  0  0  0  0  0  0  0  0  0  0  0
   75.6681   38.8960   39.8351 C   0  0  0  0  0  0  0  0  0  0  0  0
   78.9781   42.1313   44.7868 H   0  0  0  0  0  0  0  0  0  0  0  0
   78.0688   40.9284   43.9091 H   0  0  0  0  0  0  0  0  0  0  0  0
   78.9628   44.6095   39.4259 H   0  0  0  0  0  0  0  0  0  0  0  0
   80.3975   45.1760   41.3885 H   0  0  0  0  0  0  0  0  0  0  0  0
   80.2851   43.8498   43.4530 H   0  0  0  0  0  0  0  0  0  0  0  0
   75.7947   40.4651   38.3642 H   0  0  0  0  0  0  0  0  0  0  0  0
   72.2936   40.5024   39.7477 H   0  0  0  0  0  0  0  0  0  0  0  0
   74.5693   37.1030   39.3862 H   0  0  0  0  0  0  0  0  0  0  0  0
   74.7938   38.1662   37.9877 H   0  0  0  0  0  0  0  0  0  0  0  0
   75.4735   38.7728   40.9043 H   0  0  0  0  0  0  0  0  0  0  0  0
   76.6529   38.4604   39.6376 H   0  0  0  0  0  0  0  0  0  0  0  0
  1  2  1  0  0  0  0
  1 21  1  0  0  0  0
  1 22  1  0  0  0  0
  2  3  1  0  0  0  0
  2 12  2  0  0  0  0
  3  9  2  0  0  0  0
  3  4  1  0  0  0  0
  4  5  2  0  0  0  0
  4  6  1  0  0  0  0
  6  7  1  0  0  0  0
 13  6  1  0  0  0  0
  7  8  2  0  0  0  0
  7  9  1  0  0  0  0
  9 10  1  0  0  0  0
 10 23  1  0  0  0  0
 10 11  2  0  0  0  0
 11 12  1  0  0  0  0
 11 24  1  0  0  0  0
 12 25  1  0  0  0  0
 13 26  1  0  0  0  0
 13 14  1  0  0  0  0
 13 20  1  0  0  0  0
 14 15  2  0  0  0  0
 14 16  1  0  0  0  0
 16 27  1  0  0  0  0
 16 17  1  0  0  0  0
 17 18  2  0  0  0  0
 17 19  1  0  0  0  0
 19 28  1  0  0  0  0
 19 29  1  0  0  0  0
 19 20  1  0  0  0  0
 20 30  1  0  0  0  0
 20 31  1  0  0  0  0
M  ZZC   1 n1
M  ZZC   2 c1
M  ZZC   3 c2
M  ZZC   4 c3
M  ZZC   5 o1
M  ZZC   6 n2
M  ZZC   7 c4
M  ZZC   8 o2
M  ZZC   9 c5
M  ZZC  10 c6
M  ZZC  11 c7
M  ZZC  12 c8
M  ZZC  13 c9
M  ZZC  14 c10
M  ZZC  15 o3
M  ZZC  16 n3
M  ZZC  17 c11
M  ZZC  18 o4
M  ZZC  19 c12
M  ZZC  20 c13
M  ZZC  21 h11
M  ZZC  22 h12
M  ZZC  23 h61
M  ZZC  24 h71
M  ZZC  25 h81
M  ZZC  26 h91
M  ZZC  27 h31
M  ZZC  28 h121
M  ZZC  29 h122
M  ZZC  30 h131
M  ZZC  31 h132
M  ZZM   1 40
M  ZZI   1 224
M  ZZM   2 37
M  ZZI   2 124
M  ZZM   3 37
M  ZZI   3 124
M  ZZM   4 3
M  ZZI   4 121
M  ZZM   5 7
M  ZZI   5 81
M  ZZM   6 10
M  ZZI   6 192
M  ZZM   7 3
M  ZZI   7 121
M  ZZM   8 7
M  ZZI   8 81
M  ZZM   9 37
M  ZZI   9 124
M  ZZM  10 37
M  ZZI  10 125
M  ZZM  11 37
M  ZZI  11 125
M  ZZM  12 37
M  ZZI  12 125
M  ZZM  13 1
M  ZZI  13 113
M  ZZM  14 3
M  ZZI  14 121
M  ZZM  15 7
M  ZZI  15 81
M  ZZM  16 10
M  ZZI  16 191
M  ZZM  17 3
M  ZZI  17 121
M  ZZM  18 7
M  ZZI  18 81
M  ZZM  19 1
M  ZZI  19 112
M  ZZM  20 1
M  ZZI  20 112
M  ZZM  21 28
M  ZZI  21 11
M  ZZM  22 28
M  ZZI  22 11
M  ZZM  23 5
M  ZZI  23 1
M  ZZM  24 5
M  ZZI  24 1
M  ZZM  25 5
M  ZZI  25 1
M  ZZM  26 5
M  ZZI  26 1
M  ZZM  27 28
M  ZZI  27 11
M  ZZM  28 5
M  ZZI  28 1
M  ZZM  29 5
M  ZZI  29 1
M  ZZM  30 5
M  ZZI  30 1
M  ZZM  31 5
M  ZZI  31 1
M  END
> <IX>
1

> <NAME>
Cereblon_6NTU_1.pdb

> <Score>
-21.707846

> <Natom>
31

> <Nflex>
1

> <Hbond>
-4.861019

> <Hphob>
-3.562955

> <VwInt>
-24.102523

> <Dsolv>
15.076904

> <SolEl>
6.098211

> <Eintl>
1.912894

> <RecConf>
ND

> <projPath>
Cereblon_maps/

> <NAME_>
Cereblon_6NTU_1.pdb

$$$$
