Cereblon_1HWK_13.pdb
  MOLSOFT 04032206193D

 31 33  0  0  1  0  0  0  0  0999 V2000
   76.7301   41.9872   40.4774 N   0  0  0  0  0  0  0  0  0  0  0  0
   76.3197   40.6784   40.1807 C   0  0  0  0  0  0  0  0  0  0  0  0
   75.2217   40.4132   39.3813 C   0  0  0  0  0  0  0  0  0  0  0  0
   74.3432   41.3465   38.6870 C   0  0  0  0  0  0  0  0  0  0  0  0
   74.4016   42.5556   38.8532 O   0  0  0  0  0  0  0  0  0  0  0  0
   73.4802   40.5823   37.9239 N   0  0  0  0  0  0  0  0  0  0  0  0
   73.6893   39.2380   38.1606 C   0  0  0  0  0  0  0  0  0  0  0  0
   73.0964   38.2680   37.7110 O   0  0  0  0  0  0  0  0  0  0  0  0
   74.8085   39.1493   39.0969 C   0  0  0  0  0  0  0  0  0  0  0  0
   75.4228   38.0384   39.6437 C   0  0  0  0  0  0  0  0  0  0  0  0
   76.4904   38.2745   40.5015 C   0  0  0  0  0  0  0  0  0  0  0  0
   76.9239   39.5732   40.7718 C   0  0  0  0  0  0  0  0  0  0  0  0
   72.3965   41.0800   37.0644 C   0  0  1  0  0  0  0  0  0  0  0  0
   71.1509   41.3411   37.9053 C   0  0  0  0  0  0  0  0  0  0  0  0
   70.8903   40.7222   38.9265 O   0  0  0  0  0  0  0  0  0  0  0  0
   70.2661   42.2644   37.3993 N   0  0  0  0  0  0  0  0  0  0  0  0
   70.3840   43.0488   36.2834 C   0  0  0  0  0  0  0  0  0  0  0  0
   69.5624   43.9158   36.0306 O   0  0  0  0  0  0  0  0  0  0  0  0
   71.5706   42.7503   35.4028 C   0  0  0  0  0  0  0  0  0  0  0  0
   72.7616   42.3158   36.2415 C   0  0  0  0  0  0  0  0  0  0  0  0
   77.6680   42.1170   40.8510 H   0  0  0  0  0  0  0  0  0  0  0  0
   76.3432   42.7462   39.9163 H   0  0  0  0  0  0  0  0  0  0  0  0
   75.0866   37.0307   39.4177 H   0  0  0  0  0  0  0  0  0  0  0  0
   76.9984   37.4350   40.9661 H   0  0  0  0  0  0  0  0  0  0  0  0
   77.7581   39.7208   41.4504 H   0  0  0  0  0  0  0  0  0  0  0  0
   72.1265   40.2683   36.3787 H   0  0  0  0  0  0  0  0  0  0  0  0
   69.4383   42.4339   37.9517 H   0  0  0  0  0  0  0  0  0  0  0  0
   71.2856   41.9735   34.6856 H   0  0  0  0  0  0  0  0  0  0  0  0
   71.8188   43.6547   34.8424 H   0  0  0  0  0  0  0  0  0  0  0  0
   73.6189   42.1007   35.5961 H   0  0  0  0  0  0  0  0  0  0  0  0
   73.0554   43.1495   36.8867 H   0  0  0  0  0  0  0  0  0  0  0  0
  1  2  1  0  0  0  0
  1 21  1  0  0  0  0
  1 22  1  0  0  0  0
  2  3  1  0  0  0  0
  2 12  2  0  0  0  0
  3  9  2  0  0  0  0
  3  4  1  0  0  0  0
  4  5  2  0  0  0  0
  4  6  1  0  0  0  0
  6  7  1  0  0  0  0
 13  6  1  0  0  0  0
  7  8  2  0  0  0  0
  7  9  1  0  0  0  0
  9 10  1  0  0  0  0
 10 23  1  0  0  0  0
 10 11  2  0  0  0  0
 11 12  1  0  0  0  0
 11 24  1  0  0  0  0
 12 25  1  0  0  0  0
 13 26  1  0  0  0  0
 13 14  1  0  0  0  0
 13 20  1  0  0  0  0
 14 15  2  0  0  0  0
 14 16  1  0  0  0  0
 16 27  1  0  0  0  0
 16 17  1  0  0  0  0
 17 18  2  0  0  0  0
 17 19  1  0  0  0  0
 19 28  1  0  0  0  0
 19 29  1  0  0  0  0
 19 20  1  0  0  0  0
 20 30  1  0  0  0  0
 20 31  1  0  0  0  0
M  ZZC   1 n1
M  ZZC   2 c1
M  ZZC   3 c2
M  ZZC   4 c3
M  ZZC   5 o1
M  ZZC   6 n2
M  ZZC   7 c4
M  ZZC   8 o2
M  ZZC   9 c5
M  ZZC  10 c6
M  ZZC  11 c7
M  ZZC  12 c8
M  ZZC  13 c9
M  ZZC  14 c10
M  ZZC  15 o3
M  ZZC  16 n3
M  ZZC  17 c11
M  ZZC  18 o4
M  ZZC  19 c12
M  ZZC  20 c13
M  ZZC  21 h11
M  ZZC  22 h12
M  ZZC  23 h61
M  ZZC  24 h71
M  ZZC  25 h81
M  ZZC  26 h91
M  ZZC  27 h31
M  ZZC  28 h121
M  ZZC  29 h122
M  ZZC  30 h131
M  ZZC  31 h132
M  ZZM   1 40
M  ZZI   1 224
M  ZZM   2 37
M  ZZI   2 124
M  ZZM   3 37
M  ZZI   3 124
M  ZZM   4 3
M  ZZI   4 121
M  ZZM   5 7
M  ZZI   5 81
M  ZZM   6 10
M  ZZI   6 192
M  ZZM   7 3
M  ZZI   7 121
M  ZZM   8 7
M  ZZI   8 81
M  ZZM   9 37
M  ZZI   9 124
M  ZZM  10 37
M  ZZI  10 125
M  ZZM  11 37
M  ZZI  11 125
M  ZZM  12 37
M  ZZI  12 125
M  ZZM  13 1
M  ZZI  13 113
M  ZZM  14 3
M  ZZI  14 121
M  ZZM  15 7
M  ZZI  15 81
M  ZZM  16 10
M  ZZI  16 191
M  ZZM  17 3
M  ZZI  17 121
M  ZZM  18 7
M  ZZI  18 81
M  ZZM  19 1
M  ZZI  19 112
M  ZZM  20 1
M  ZZI  20 112
M  ZZM  21 28
M  ZZI  21 11
M  ZZM  22 28
M  ZZI  22 11
M  ZZM  23 5
M  ZZI  23 1
M  ZZM  24 5
M  ZZI  24 1
M  ZZM  25 5
M  ZZI  25 1
M  ZZM  26 5
M  ZZI  26 1
M  ZZM  27 28
M  ZZI  27 11
M  ZZM  28 5
M  ZZI  28 1
M  ZZM  29 5
M  ZZI  29 1
M  ZZM  30 5
M  ZZI  30 1
M  ZZM  31 5
M  ZZI  31 1
M  END
> <IX>
1

> <NAME>
Cereblon_1HWK_13.pdb

> <Score>
-19.475511

> <Natom>
31

> <Nflex>
1

> <Hbond>
-4.846396

> <Hphob>
-3.518427

> <VwInt>
-25.215439

> <Dsolv>
15.904179

> <SolEl>
10.608236

> <Eintl>
1.381811

> <RecConf>
ND

> <projPath>
Cereblon_maps/

> <NAME_>
Cereblon_1HWK_13.pdb

$$$$
