Cereblon_6Y7K_10.pdb
  MOLSOFT 04032206303D

 32 34  0  0  1  0  0  0  0  0999 V2000
   78.6188   41.6241   43.9864 N   0  0  0  0  0  0  0  0  0  0  0  0
   78.7229   42.3785   42.8087 C   0  0  0  0  0  0  0  0  0  0  0  0
   78.0076   42.0449   41.6709 C   0  0  0  0  0  0  0  0  0  0  0  0
   78.0888   42.8144   40.5405 C   0  0  0  0  0  0  0  0  0  0  0  0
   77.1844   42.2485   39.5303 C   0  0  0  0  0  0  0  0  0  0  0  0
   77.0033   42.7077   38.4100 O   0  0  0  0  0  0  0  0  0  0  0  0
   76.6150   41.1284   40.1044 N   0  0  0  0  0  0  0  0  0  0  0  0
   75.5854   40.3216   39.4498 C   0  0  2  0  0  0  0  0  0  0  0  0
   74.2151   40.9242   39.7242 C   0  0  0  0  0  0  0  0  0  0  0  0
   74.0389   42.1066   39.9678 O   0  0  0  0  0  0  0  0  0  0  0  0
   73.1455   40.0668   39.6270 N   0  0  0  0  0  0  0  0  0  0  0  0
   73.1573   38.7210   39.3540 C   0  0  0  0  0  0  0  0  0  0  0  0
   72.1266   38.0733   39.2718 O   0  0  0  0  0  0  0  0  0  0  0  0
   74.5132   38.1061   39.1049 C   0  0  0  0  0  0  0  0  0  0  0  0
   75.6017   38.8525   39.8549 C   0  0  0  0  0  0  0  0  0  0  0  0
   77.0893   40.9003   41.4566 C   0  0  0  0  0  0  0  0  0  0  0  0
   78.9256   43.9078   40.4365 C   0  0  0  0  0  0  0  0  0  0  0  0
   79.7015   44.2111   41.5459 C   0  0  0  0  0  0  0  0  0  0  0  0
   79.6006   43.4553   42.7130 C   0  0  0  0  0  0  0  0  0  0  0  0
   78.9034   42.0493   44.8675 H   0  0  0  0  0  0  0  0  0  0  0  0
   77.9675   40.8449   44.0346 H   0  0  0  0  0  0  0  0  0  0  0  0
   75.7429   40.4164   38.3742 H   0  0  0  0  0  0  0  0  0  0  0  0
   72.2347   40.4829   39.7764 H   0  0  0  0  0  0  0  0  0  0  0  0
   74.4898   37.0626   39.4344 H   0  0  0  0  0  0  0  0  0  0  0  0
   74.6991   38.1165   38.0261 H   0  0  0  0  0  0  0  0  0  0  0  0
   76.5791   38.4074   39.6419 H   0  0  0  0  0  0  0  0  0  0  0  0
   75.4344   38.7456   40.9316 H   0  0  0  0  0  0  0  0  0  0  0  0
   77.6266   39.9466   41.4992 H   0  0  0  0  0  0  0  0  0  0  0  0
   76.2523   40.9075   42.1557 H   0  0  0  0  0  0  0  0  0  0  0  0
   78.9762   44.4961   39.5276 H   0  0  0  0  0  0  0  0  0  0  0  0
   80.3845   45.0528   41.5097 H   0  0  0  0  0  0  0  0  0  0  0  0
   80.2174   43.7202   43.5660 H   0  0  0  0  0  0  0  0  0  0  0  0
  1  2  1  0  0  0  0
  1 20  1  0  0  0  0
  1 21  1  0  0  0  0
  2  3  1  0  0  0  0
  2 19  2  0  0  0  0
  3 16  1  0  0  0  0
  3  4  2  0  0  0  0
  4 17  1  0  0  0  0
  4  5  1  0  0  0  0
  5  6  2  0  0  0  0
  5  7  1  0  0  0  0
  8  7  1  0  0  0  0
  7 16  1  0  0  0  0
  8  9  1  0  0  0  0
  8 22  1  0  0  0  0
  8 15  1  0  0  0  0
  9 11  1  0  0  0  0
  9 10  2  0  0  0  0
 11 12  1  0  0  0  0
 11 23  1  0  0  0  0
 12 14  1  0  0  0  0
 12 13  2  0  0  0  0
 14 24  1  0  0  0  0
 14 25  1  0  0  0  0
 14 15  1  0  0  0  0
 15 26  1  0  0  0  0
 15 27  1  0  0  0  0
 16 28  1  0  0  0  0
 16 29  1  0  0  0  0
 17 18  2  0  0  0  0
 17 30  1  0  0  0  0
 18 19  1  0  0  0  0
 18 31  1  0  0  0  0
 19 32  1  0  0  0  0
M  ZZC   1 n1
M  ZZC   2 c1
M  ZZC   3 c2
M  ZZC   4 c3
M  ZZC   5 c4
M  ZZC   6 o1
M  ZZC   7 n2
M  ZZC   8 c5
M  ZZC   9 c6
M  ZZC  10 o2
M  ZZC  11 n3
M  ZZC  12 c7
M  ZZC  13 o3
M  ZZC  14 c8
M  ZZC  15 c9
M  ZZC  16 c10
M  ZZC  17 c11
M  ZZC  18 c12
M  ZZC  19 c13
M  ZZC  20 h11
M  ZZC  21 h12
M  ZZC  22 h51
M  ZZC  23 h31
M  ZZC  24 h81
M  ZZC  25 h82
M  ZZC  26 h91
M  ZZC  27 h92
M  ZZC  28 h101
M  ZZC  29 h102
M  ZZC  30 h111
M  ZZC  31 h121
M  ZZC  32 h131
M  ZZM   1 40
M  ZZI   1 224
M  ZZM   2 37
M  ZZI   2 124
M  ZZM   3 37
M  ZZI   3 124
M  ZZM   4 37
M  ZZI   4 124
M  ZZM   5 3
M  ZZI   5 121
M  ZZM   6 7
M  ZZI   6 81
M  ZZM   7 10
M  ZZI   7 192
M  ZZM   8 1
M  ZZI   8 113
M  ZZM   9 3
M  ZZI   9 121
M  ZZM  10 7
M  ZZI  10 81
M  ZZM  11 10
M  ZZI  11 191
M  ZZM  12 3
M  ZZI  12 121
M  ZZM  13 7
M  ZZI  13 81
M  ZZM  14 1
M  ZZI  14 112
M  ZZM  15 1
M  ZZI  15 112
M  ZZM  16 1
M  ZZI  16 112
M  ZZM  17 37
M  ZZI  17 125
M  ZZM  18 37
M  ZZI  18 125
M  ZZM  19 37
M  ZZI  19 125
M  ZZM  20 28
M  ZZI  20 11
M  ZZM  21 28
M  ZZI  21 11
M  ZZM  22 5
M  ZZI  22 1
M  ZZM  23 28
M  ZZI  23 11
M  ZZM  24 5
M  ZZI  24 1
M  ZZM  25 5
M  ZZI  25 1
M  ZZM  26 5
M  ZZI  26 1
M  ZZM  27 5
M  ZZI  27 1
M  ZZM  28 5
M  ZZI  28 1
M  ZZM  29 5
M  ZZI  29 1
M  ZZM  30 5
M  ZZI  30 1
M  ZZM  31 5
M  ZZI  31 1
M  ZZM  32 5
M  ZZI  32 1
M  END
> <IX>
1

> <NAME>
Cereblon_6Y7K_10.pdb

> <Score>
-21.061372

> <Natom>
32

> <Nflex>
1

> <Hbond>
-4.835956

> <Hphob>
-3.896536

> <VwInt>
-22.534583

> <Dsolv>
14.327035

> <SolEl>
6.369364

> <Eintl>
1.283002

> <RecConf>
ND

> <projPath>
Cereblon_maps/

> <NAME_>
Cereblon_6Y7K_10.pdb

$$$$
