Cereblon_2WXL_2.pdb
  MOLSOFT 04032206203D

 29 31  0  0  1  0  0  0  0  0999 V2000
   69.7729   42.5177   36.8243 C   0  0  0  0  0  0  0  0  0  0  0  0
   71.0203   42.0740   37.2273 C   0  0  0  0  0  0  0  0  0  0  0  0
   71.4161   41.2384   38.3602 C   0  0  0  0  0  0  0  0  0  0  0  0
   70.6207   40.6670   39.0928 O   0  0  0  0  0  0  0  0  0  0  0  0
   72.7976   41.1828   38.3375 N   0  0  0  0  0  0  0  0  0  0  0  0
   73.2943   41.8183   37.2179 C   0  0  0  0  0  0  0  0  0  0  0  0
   74.4439   41.9119   36.8121 O   0  0  0  0  0  0  0  0  0  0  0  0
   72.1465   42.4118   36.5477 C   0  0  0  0  0  0  0  0  0  0  0  0
   72.1136   43.2076   35.4277 C   0  0  0  0  0  0  0  0  0  0  0  0
   70.8747   43.6704   35.0131 C   0  0  0  0  0  0  0  0  0  0  0  0
   69.7156   43.3187   35.6938 C   0  0  0  0  0  0  0  0  0  0  0  0
   73.6003   40.3689   39.2529 C   0  0  2  0  0  0  0  0  0  0  0  0
   74.8736   41.1110   39.6582 C   0  0  0  0  0  0  0  0  0  0  0  0
   74.8898   42.3144   39.8620 O   0  0  0  0  0  0  0  0  0  0  0  0
   75.9943   40.3401   39.8670 N   0  0  0  0  0  0  0  0  0  0  0  0
   76.0865   38.9713   39.8985 C   0  0  0  0  0  0  0  0  0  0  0  0
   77.1229   38.3984   40.1931 O   0  0  0  0  0  0  0  0  0  0  0  0
   74.8086   38.2214   39.6191 C   0  0  0  0  0  0  0  0  0  0  0  0
   73.9167   38.9991   38.6686 C   0  0  0  0  0  0  0  0  0  0  0  0
   68.8707   42.2587   37.3606 H   0  0  0  0  0  0  0  0  0  0  0  0
   73.0241   43.4564   34.9065 H   0  0  0  0  0  0  0  0  0  0  0  0
   70.8071   44.3192   34.1508 H   0  0  0  0  0  0  0  0  0  0  0  0
   68.7567   43.6765   35.3353 H   0  0  0  0  0  0  0  0  0  0  0  0
   73.0098   40.2321   40.1660 H   0  0  0  0  0  0  0  0  0  0  0  0
   76.8510   40.8379   40.0809 H   0  0  0  0  0  0  0  0  0  0  0  0
   75.0616   37.2522   39.1776 H   0  0  0  0  0  0  0  0  0  0  0  0
   74.3003   38.0381   40.5718 H   0  0  0  0  0  0  0  0  0  0  0  0
   74.4064   39.0974   37.6966 H   0  0  0  0  0  0  0  0  0  0  0  0
   72.9912   38.4421   38.4898 H   0  0  0  0  0  0  0  0  0  0  0  0
  1 20  1  0  0  0  0
  1  2  1  0  0  0  0
  1 11  2  0  0  0  0
  2  3  1  0  0  0  0
  2  8  2  0  0  0  0
  3  4  2  0  0  0  0
  3  5  1  0  0  0  0
  5  6  1  0  0  0  0
 12  5  1  0  0  0  0
  6  7  2  0  0  0  0
  6  8  1  0  0  0  0
  8  9  1  0  0  0  0
  9 21  1  0  0  0  0
  9 10  2  0  0  0  0
 10 22  1  0  0  0  0
 10 11  1  0  0  0  0
 11 23  1  0  0  0  0
 12 24  1  0  0  0  0
 12 13  1  0  0  0  0
 12 19  1  0  0  0  0
 13 14  2  0  0  0  0
 13 15  1  0  0  0  0
 15 25  1  0  0  0  0
 15 16  1  0  0  0  0
 16 17  2  0  0  0  0
 16 18  1  0  0  0  0
 18 26  1  0  0  0  0
 18 27  1  0  0  0  0
 18 19  1  0  0  0  0
 19 28  1  0  0  0  0
 19 29  1  0  0  0  0
M  ZZC   1 c1
M  ZZC   2 c2
M  ZZC   3 c3
M  ZZC   4 o1
M  ZZC   5 n1
M  ZZC   6 c4
M  ZZC   7 o2
M  ZZC   8 c5
M  ZZC   9 c6
M  ZZC  10 c7
M  ZZC  11 c8
M  ZZC  12 c9
M  ZZC  13 c10
M  ZZC  14 o3
M  ZZC  15 n2
M  ZZC  16 c11
M  ZZC  17 o4
M  ZZC  18 c12
M  ZZC  19 c13
M  ZZC  20 h11
M  ZZC  21 h61
M  ZZC  22 h71
M  ZZC  23 h81
M  ZZC  24 h91
M  ZZC  25 h21
M  ZZC  26 h121
M  ZZC  27 h122
M  ZZC  28 h131
M  ZZC  29 h132
M  ZZM   1 37
M  ZZI   1 125
M  ZZM   2 37
M  ZZI   2 124
M  ZZM   3 3
M  ZZI   3 121
M  ZZM   4 7
M  ZZI   4 81
M  ZZM   5 10
M  ZZI   5 192
M  ZZM   6 3
M  ZZI   6 121
M  ZZM   7 7
M  ZZI   7 81
M  ZZM   8 37
M  ZZI   8 124
M  ZZM   9 37
M  ZZI   9 125
M  ZZM  10 37
M  ZZI  10 125
M  ZZM  11 37
M  ZZI  11 125
M  ZZM  12 1
M  ZZI  12 113
M  ZZM  13 3
M  ZZI  13 121
M  ZZM  14 7
M  ZZI  14 81
M  ZZM  15 10
M  ZZI  15 191
M  ZZM  16 3
M  ZZI  16 121
M  ZZM  17 7
M  ZZI  17 81
M  ZZM  18 1
M  ZZI  18 112
M  ZZM  19 1
M  ZZI  19 112
M  ZZM  20 5
M  ZZI  20 1
M  ZZM  21 5
M  ZZI  21 1
M  ZZM  22 5
M  ZZI  22 1
M  ZZM  23 5
M  ZZI  23 1
M  ZZM  24 5
M  ZZI  24 1
M  ZZM  25 28
M  ZZI  25 11
M  ZZM  26 5
M  ZZI  26 1
M  ZZM  27 5
M  ZZI  27 1
M  ZZM  28 5
M  ZZI  28 1
M  ZZM  29 5
M  ZZI  29 1
M  END
> <IX>
1

> <NAME>
Cereblon_2WXL_2.pdb

> <Score>
-12.911521

> <Natom>
29

> <Nflex>
1

> <Hbond>
-3.853054

> <Hphob>
-3.396448

> <VwInt>
-18.091445

> <Dsolv>
12.946912

> <SolEl>
7.226873

> <Eintl>
3.539751

> <RecConf>
ND

> <projPath>
Cereblon_maps/

> <NAME_>
Cereblon_2WXL_2.pdb

$$$$
