Cereblon_5V9O_15.pdb
  MOLSOFT 04032206273D

 29 31  0  0  1  0  0  0  0  0999 V2000
   79.7970   44.3856   41.3908 C   0  0  0  0  0  0  0  0  0  0  0  0
   78.9563   44.0744   40.3283 C   0  0  0  0  0  0  0  0  0  0  0  0
   78.1590   42.9570   40.4699 C   0  0  0  0  0  0  0  0  0  0  0  0
   77.2249   42.3435   39.5250 C   0  0  0  0  0  0  0  0  0  0  0  0
   76.9846   42.7703   38.4032 O   0  0  0  0  0  0  0  0  0  0  0  0
   76.7287   41.2174   40.1485 N   0  0  0  0  0  0  0  0  0  0  0  0
   77.2685   41.0757   41.4137 C   0  0  0  0  0  0  0  0  0  0  0  0
   77.0872   40.2164   42.2626 O   0  0  0  0  0  0  0  0  0  0  0  0
   78.1857   42.1946   41.5989 C   0  0  0  0  0  0  0  0  0  0  0  0
   79.0027   42.4913   42.6753 C   0  0  0  0  0  0  0  0  0  0  0  0
   79.8209   43.6075   42.5491 C   0  0  0  0  0  0  0  0  0  0  0  0
   75.7186   40.3635   39.5169 C   0  0  2  0  0  0  0  0  0  0  0  0
   74.3392   40.9328   39.8055 C   0  0  0  0  0  0  0  0  0  0  0  0
   74.1517   42.1192   40.0183 O   0  0  0  0  0  0  0  0  0  0  0  0
   73.2883   40.0514   39.7314 N   0  0  0  0  0  0  0  0  0  0  0  0
   73.3264   38.7053   39.4602 C   0  0  0  0  0  0  0  0  0  0  0  0
   72.3107   38.0316   39.4049 O   0  0  0  0  0  0  0  0  0  0  0  0
   74.6904   38.1243   39.1814 C   0  0  0  0  0  0  0  0  0  0  0  0
   75.7731   38.8935   39.9178 C   0  0  0  0  0  0  0  0  0  0  0  0
   80.4434   45.2532   41.3213 H   0  0  0  0  0  0  0  0  0  0  0  0
   78.9249   44.6764   39.4280 H   0  0  0  0  0  0  0  0  0  0  0  0
   79.0136   41.8778   43.5719 H   0  0  0  0  0  0  0  0  0  0  0  0
   80.4863   43.8775   43.3642 H   0  0  0  0  0  0  0  0  0  0  0  0
   75.8573   40.4516   38.4368 H   0  0  0  0  0  0  0  0  0  0  0  0
   72.3707   40.4470   39.8943 H   0  0  0  0  0  0  0  0  0  0  0  0
   74.6989   37.0779   39.5040 H   0  0  0  0  0  0  0  0  0  0  0  0
   74.8512   38.1468   38.0992 H   0  0  0  0  0  0  0  0  0  0  0  0
   76.7586   38.4717   39.6934 H   0  0  0  0  0  0  0  0  0  0  0  0
   75.6111   38.7734   40.9925 H   0  0  0  0  0  0  0  0  0  0  0  0
  1 20  1  0  0  0  0
  1  2  1  0  0  0  0
  1 11  2  0  0  0  0
  2 21  1  0  0  0  0
  2  3  2  0  0  0  0
  3  4  1  0  0  0  0
  3  9  1  0  0  0  0
  4  5  2  0  0  0  0
  4  6  1  0  0  0  0
  6  7  1  0  0  0  0
 12  6  1  0  0  0  0
  7  8  2  0  0  0  0
  7  9  1  0  0  0  0
  9 10  2  0  0  0  0
 10 22  1  0  0  0  0
 10 11  1  0  0  0  0
 11 23  1  0  0  0  0
 12 24  1  0  0  0  0
 12 13  1  0  0  0  0
 12 19  1  0  0  0  0
 13 14  2  0  0  0  0
 13 15  1  0  0  0  0
 15 25  1  0  0  0  0
 15 16  1  0  0  0  0
 16 17  2  0  0  0  0
 16 18  1  0  0  0  0
 18 26  1  0  0  0  0
 18 27  1  0  0  0  0
 18 19  1  0  0  0  0
 19 28  1  0  0  0  0
 19 29  1  0  0  0  0
M  ZZC   1 c1
M  ZZC   2 c2
M  ZZC   3 c3
M  ZZC   4 c4
M  ZZC   5 o1
M  ZZC   6 n1
M  ZZC   7 c5
M  ZZC   8 o2
M  ZZC   9 c6
M  ZZC  10 c7
M  ZZC  11 c8
M  ZZC  12 c9
M  ZZC  13 c10
M  ZZC  14 o3
M  ZZC  15 n2
M  ZZC  16 c11
M  ZZC  17 o4
M  ZZC  18 c12
M  ZZC  19 c13
M  ZZC  20 h11
M  ZZC  21 h21
M  ZZC  22 h71
M  ZZC  23 h81
M  ZZC  24 h91
M  ZZC  25 h01
M  ZZC  26 h121
M  ZZC  27 h122
M  ZZC  28 h131
M  ZZC  29 h132
M  ZZM   1 37
M  ZZI   1 125
M  ZZM   2 37
M  ZZI   2 125
M  ZZM   3 37
M  ZZI   3 124
M  ZZM   4 3
M  ZZI   4 121
M  ZZM   5 7
M  ZZI   5 81
M  ZZM   6 10
M  ZZI   6 192
M  ZZM   7 3
M  ZZI   7 121
M  ZZM   8 7
M  ZZI   8 81
M  ZZM   9 37
M  ZZI   9 124
M  ZZM  10 37
M  ZZI  10 125
M  ZZM  11 37
M  ZZI  11 125
M  ZZM  12 1
M  ZZI  12 113
M  ZZM  13 3
M  ZZI  13 121
M  ZZM  14 7
M  ZZI  14 81
M  ZZM  15 10
M  ZZI  15 191
M  ZZM  16 3
M  ZZI  16 121
M  ZZM  17 7
M  ZZI  17 81
M  ZZM  18 1
M  ZZI  18 112
M  ZZM  19 1
M  ZZI  19 112
M  ZZM  20 5
M  ZZI  20 1
M  ZZM  21 5
M  ZZI  21 1
M  ZZM  22 5
M  ZZI  22 1
M  ZZM  23 5
M  ZZI  23 1
M  ZZM  24 5
M  ZZI  24 1
M  ZZM  25 28
M  ZZI  25 11
M  ZZM  26 5
M  ZZI  26 1
M  ZZM  27 5
M  ZZI  27 1
M  ZZM  28 5
M  ZZI  28 1
M  ZZM  29 5
M  ZZI  29 1
M  END
> <IX>
1

> <NAME>
Cereblon_5V9O_15.pdb

> <Score>
-19.365522

> <Natom>
29

> <Nflex>
1

> <Hbond>
-3.336878

> <Hphob>
-3.502743

> <VwInt>
-22.695862

> <Dsolv>
12.00806

> <SolEl>
5.531449

> <Eintl>
1.437797

> <RecConf>
ND

> <projPath>
Cereblon_maps/

> <NAME_>
Cereblon_5V9O_15.pdb

$$$$
