Cereblon_5TOB_5.pdb
  MOLSOFT 04032206263D

 31 33  0  0  1  0  0  0  0  0999 V2000
   78.8132   41.6777   43.8183 N   0  0  0  0  0  0  0  0  0  0  0  0
   78.9075   42.4221   42.6319 C   0  0  0  0  0  0  0  0  0  0  0  0
   78.1006   42.1579   41.5381 C   0  0  0  0  0  0  0  0  0  0  0  0
   77.1797   41.0476   41.3304 C   0  0  0  0  0  0  0  0  0  0  0  0
   76.9991   40.1643   42.1555 O   0  0  0  0  0  0  0  0  0  0  0  0
   76.6450   41.2126   40.0681 N   0  0  0  0  0  0  0  0  0  0  0  0
   77.1670   42.3332   39.4545 C   0  0  0  0  0  0  0  0  0  0  0  0
   76.9556   42.7559   38.3252 O   0  0  0  0  0  0  0  0  0  0  0  0
   78.0986   42.9278   40.4144 C   0  0  0  0  0  0  0  0  0  0  0  0
   78.9098   44.0375   40.2942 C   0  0  0  0  0  0  0  0  0  0  0  0
   79.7253   44.3370   41.3793 C   0  0  0  0  0  0  0  0  0  0  0  0
   79.7126   43.5531   42.5347 C   0  0  0  0  0  0  0  0  0  0  0  0
   75.6253   40.3768   39.4307 C   0  0  2  0  0  0  0  0  0  0  0  0
   74.2535   40.9551   39.7345 C   0  0  0  0  0  0  0  0  0  0  0  0
   74.0831   42.1350   39.9924 O   0  0  0  0  0  0  0  0  0  0  0  0
   73.1925   40.0902   39.6206 N   0  0  0  0  0  0  0  0  0  0  0  0
   73.2174   38.7525   39.3082 C   0  0  0  0  0  0  0  0  0  0  0  0
   72.1923   38.0998   39.1999 O   0  0  0  0  0  0  0  0  0  0  0  0
   74.5805   38.1538   39.0551 C   0  0  0  0  0  0  0  0  0  0  0  0
   75.6582   38.9020   39.8197 C   0  0  0  0  0  0  0  0  0  0  0  0
   79.5535   41.7604   44.5115 H   0  0  0  0  0  0  0  0  0  0  0  0
   78.3218   40.7835   43.7763 H   0  0  0  0  0  0  0  0  0  0  0  0
   78.9022   44.6461   39.3977 H   0  0  0  0  0  0  0  0  0  0  0  0
   80.3730   45.2056   41.3361 H   0  0  0  0  0  0  0  0  0  0  0  0
   80.3436   43.8352   43.3720 H   0  0  0  0  0  0  0  0  0  0  0  0
   75.7605   40.4771   38.3525 H   0  0  0  0  0  0  0  0  0  0  0  0
   72.2772   40.4925   39.7804 H   0  0  0  0  0  0  0  0  0  0  0  0
   74.5647   37.1061   39.3718 H   0  0  0  0  0  0  0  0  0  0  0  0
   74.7690   38.1792   37.9774 H   0  0  0  0  0  0  0  0  0  0  0  0
   75.4718   38.7746   40.8900 H   0  0  0  0  0  0  0  0  0  0  0  0
   76.6431   38.4710   39.6133 H   0  0  0  0  0  0  0  0  0  0  0  0
  1  2  1  0  0  0  0
  1 21  1  0  0  0  0
  1 22  1  0  0  0  0
  2  3  1  0  0  0  0
  2 12  2  0  0  0  0
  3  9  2  0  0  0  0
  3  4  1  0  0  0  0
  4  5  2  0  0  0  0
  4  6  1  0  0  0  0
  6  7  1  0  0  0  0
 13  6  1  0  0  0  0
  7  8  2  0  0  0  0
  7  9  1  0  0  0  0
  9 10  1  0  0  0  0
 10 23  1  0  0  0  0
 10 11  2  0  0  0  0
 11 12  1  0  0  0  0
 11 24  1  0  0  0  0
 12 25  1  0  0  0  0
 13 26  1  0  0  0  0
 13 14  1  0  0  0  0
 13 20  1  0  0  0  0
 14 15  2  0  0  0  0
 14 16  1  0  0  0  0
 16 27  1  0  0  0  0
 16 17  1  0  0  0  0
 17 18  2  0  0  0  0
 17 19  1  0  0  0  0
 19 28  1  0  0  0  0
 19 29  1  0  0  0  0
 19 20  1  0  0  0  0
 20 30  1  0  0  0  0
 20 31  1  0  0  0  0
M  ZZC   1 n1
M  ZZC   2 c1
M  ZZC   3 c2
M  ZZC   4 c3
M  ZZC   5 o1
M  ZZC   6 n2
M  ZZC   7 c4
M  ZZC   8 o2
M  ZZC   9 c5
M  ZZC  10 c6
M  ZZC  11 c7
M  ZZC  12 c8
M  ZZC  13 c9
M  ZZC  14 c10
M  ZZC  15 o3
M  ZZC  16 n3
M  ZZC  17 c11
M  ZZC  18 o4
M  ZZC  19 c12
M  ZZC  20 c13
M  ZZC  21 h11
M  ZZC  22 h12
M  ZZC  23 h61
M  ZZC  24 h71
M  ZZC  25 h81
M  ZZC  26 h91
M  ZZC  27 h31
M  ZZC  28 h121
M  ZZC  29 h122
M  ZZC  30 h131
M  ZZC  31 h132
M  ZZM   1 40
M  ZZI   1 224
M  ZZM   2 37
M  ZZI   2 124
M  ZZM   3 37
M  ZZI   3 124
M  ZZM   4 3
M  ZZI   4 121
M  ZZM   5 7
M  ZZI   5 81
M  ZZM   6 10
M  ZZI   6 192
M  ZZM   7 3
M  ZZI   7 121
M  ZZM   8 7
M  ZZI   8 81
M  ZZM   9 37
M  ZZI   9 124
M  ZZM  10 37
M  ZZI  10 125
M  ZZM  11 37
M  ZZI  11 125
M  ZZM  12 37
M  ZZI  12 125
M  ZZM  13 1
M  ZZI  13 113
M  ZZM  14 3
M  ZZI  14 121
M  ZZM  15 7
M  ZZI  15 81
M  ZZM  16 10
M  ZZI  16 191
M  ZZM  17 3
M  ZZI  17 121
M  ZZM  18 7
M  ZZI  18 81
M  ZZM  19 1
M  ZZI  19 112
M  ZZM  20 1
M  ZZI  20 112
M  ZZM  21 28
M  ZZI  21 11
M  ZZM  22 28
M  ZZI  22 11
M  ZZM  23 5
M  ZZI  23 1
M  ZZM  24 5
M  ZZI  24 1
M  ZZM  25 5
M  ZZI  25 1
M  ZZM  26 5
M  ZZI  26 1
M  ZZM  27 28
M  ZZI  27 11
M  ZZM  28 5
M  ZZI  28 1
M  ZZM  29 5
M  ZZI  29 1
M  ZZM  30 5
M  ZZI  30 1
M  ZZM  31 5
M  ZZI  31 1
M  END
> <IX>
1

> <NAME>
Cereblon_5TOB_5.pdb

> <Score>
-18.456089

> <Natom>
31

> <Nflex>
1

> <Hbond>
-3.703268

> <Hphob>
-3.586409

> <VwInt>
-24.234105

> <Dsolv>
15.143382

> <SolEl>
6.936449

> <Eintl>
1.690976

> <RecConf>
ND

> <projPath>
Cereblon_maps/

> <NAME_>
Cereblon_5TOB_5.pdb

$$$$
