Cereblon_5L2I_1.pdb
  MOLSOFT 04032206253D

 31 33  0  0  1  0  0  0  0  0999 V2000
   78.7229   41.7149   43.8968 N   0  0  0  0  0  0  0  0  0  0  0  0
   78.7896   42.4951   42.7312 C   0  0  0  0  0  0  0  0  0  0  0  0
   78.0721   42.1739   41.5909 C   0  0  0  0  0  0  0  0  0  0  0  0
   77.1613   41.0588   41.3692 C   0  0  0  0  0  0  0  0  0  0  0  0
   76.9442   40.1962   42.2067 O   0  0  0  0  0  0  0  0  0  0  0  0
   76.6674   41.2030   40.0881 N   0  0  0  0  0  0  0  0  0  0  0  0
   77.2011   42.3195   39.4776 C   0  0  0  0  0  0  0  0  0  0  0  0
   77.0007   42.7404   38.3456 O   0  0  0  0  0  0  0  0  0  0  0  0
   78.1125   42.9212   40.4530 C   0  0  0  0  0  0  0  0  0  0  0  0
   78.9338   44.0242   40.3407 C   0  0  0  0  0  0  0  0  0  0  0  0
   79.7228   44.3319   41.4433 C   0  0  0  0  0  0  0  0  0  0  0  0
   79.6548   43.5794   42.6178 C   0  0  0  0  0  0  0  0  0  0  0  0
   75.6518   40.3692   39.4416 C   0  0  2  0  0  0  0  0  0  0  0  0
   74.2802   40.9550   39.7331 C   0  0  0  0  0  0  0  0  0  0  0  0
   74.1135   42.1374   39.9825 O   0  0  0  0  0  0  0  0  0  0  0  0
   73.2162   40.0939   39.6182 N   0  0  0  0  0  0  0  0  0  0  0  0
   73.2367   38.7541   39.3149 C   0  0  0  0  0  0  0  0  0  0  0  0
   72.2097   38.1040   39.2085 O   0  0  0  0  0  0  0  0  0  0  0  0
   74.5981   38.1489   39.0684 C   0  0  0  0  0  0  0  0  0  0  0  0
   75.6770   38.8950   39.8336 C   0  0  0  0  0  0  0  0  0  0  0  0
   78.9817   42.1328   44.7893 H   0  0  0  0  0  0  0  0  0  0  0  0
   78.0449   40.9512   43.9194 H   0  0  0  0  0  0  0  0  0  0  0  0
   78.9638   44.6134   39.4318 H   0  0  0  0  0  0  0  0  0  0  0  0
   80.3971   45.1798   41.3955 H   0  0  0  0  0  0  0  0  0  0  0  0
   80.2845   43.8525   43.4591 H   0  0  0  0  0  0  0  0  0  0  0  0
   75.7973   40.4662   38.3644 H   0  0  0  0  0  0  0  0  0  0  0  0
   72.3018   40.5006   39.7721 H   0  0  0  0  0  0  0  0  0  0  0  0
   74.5773   37.1021   39.3877 H   0  0  0  0  0  0  0  0  0  0  0  0
   74.7885   38.1707   37.9910 H   0  0  0  0  0  0  0  0  0  0  0  0
   76.6607   38.4599   39.6297 H   0  0  0  0  0  0  0  0  0  0  0  0
   75.4888   38.7697   40.9037 H   0  0  0  0  0  0  0  0  0  0  0  0
  1  2  1  0  0  0  0
  1 21  1  0  0  0  0
  1 22  1  0  0  0  0
  2  3  1  0  0  0  0
  2 12  2  0  0  0  0
  3  9  2  0  0  0  0
  3  4  1  0  0  0  0
  4  5  2  0  0  0  0
  4  6  1  0  0  0  0
  6  7  1  0  0  0  0
 13  6  1  0  0  0  0
  7  8  2  0  0  0  0
  7  9  1  0  0  0  0
  9 10  1  0  0  0  0
 10 23  1  0  0  0  0
 10 11  2  0  0  0  0
 11 12  1  0  0  0  0
 11 24  1  0  0  0  0
 12 25  1  0  0  0  0
 13 26  1  0  0  0  0
 13 14  1  0  0  0  0
 13 20  1  0  0  0  0
 14 15  2  0  0  0  0
 14 16  1  0  0  0  0
 16 27  1  0  0  0  0
 16 17  1  0  0  0  0
 17 18  2  0  0  0  0
 17 19  1  0  0  0  0
 19 28  1  0  0  0  0
 19 29  1  0  0  0  0
 19 20  1  0  0  0  0
 20 30  1  0  0  0  0
 20 31  1  0  0  0  0
M  ZZC   1 n1
M  ZZC   2 c1
M  ZZC   3 c2
M  ZZC   4 c3
M  ZZC   5 o1
M  ZZC   6 n2
M  ZZC   7 c4
M  ZZC   8 o2
M  ZZC   9 c5
M  ZZC  10 c6
M  ZZC  11 c7
M  ZZC  12 c8
M  ZZC  13 c9
M  ZZC  14 c10
M  ZZC  15 o3
M  ZZC  16 n3
M  ZZC  17 c11
M  ZZC  18 o4
M  ZZC  19 c12
M  ZZC  20 c13
M  ZZC  21 h11
M  ZZC  22 h12
M  ZZC  23 h61
M  ZZC  24 h71
M  ZZC  25 h81
M  ZZC  26 h91
M  ZZC  27 h31
M  ZZC  28 h121
M  ZZC  29 h122
M  ZZC  30 h131
M  ZZC  31 h132
M  ZZM   1 40
M  ZZI   1 224
M  ZZM   2 37
M  ZZI   2 124
M  ZZM   3 37
M  ZZI   3 124
M  ZZM   4 3
M  ZZI   4 121
M  ZZM   5 7
M  ZZI   5 81
M  ZZM   6 10
M  ZZI   6 192
M  ZZM   7 3
M  ZZI   7 121
M  ZZM   8 7
M  ZZI   8 81
M  ZZM   9 37
M  ZZI   9 124
M  ZZM  10 37
M  ZZI  10 125
M  ZZM  11 37
M  ZZI  11 125
M  ZZM  12 37
M  ZZI  12 125
M  ZZM  13 1
M  ZZI  13 113
M  ZZM  14 3
M  ZZI  14 121
M  ZZM  15 7
M  ZZI  15 81
M  ZZM  16 10
M  ZZI  16 191
M  ZZM  17 3
M  ZZI  17 121
M  ZZM  18 7
M  ZZI  18 81
M  ZZM  19 1
M  ZZI  19 112
M  ZZM  20 1
M  ZZI  20 112
M  ZZM  21 28
M  ZZI  21 11
M  ZZM  22 28
M  ZZI  22 11
M  ZZM  23 5
M  ZZI  23 1
M  ZZM  24 5
M  ZZI  24 1
M  ZZM  25 5
M  ZZI  25 1
M  ZZM  26 5
M  ZZI  26 1
M  ZZM  27 28
M  ZZI  27 11
M  ZZM  28 5
M  ZZI  28 1
M  ZZM  29 5
M  ZZI  29 1
M  ZZM  30 5
M  ZZI  30 1
M  ZZM  31 5
M  ZZI  31 1
M  END
> <IX>
1

> <NAME>
Cereblon_5L2I_1.pdb

> <Score>
-21.755942

> <Natom>
31

> <Nflex>
1

> <Hbond>
-4.875141

> <Hphob>
-3.564389

> <VwInt>
-24.045315

> <Dsolv>
15.102243

> <SolEl>
6.047516

> <Eintl>
1.822627

> <RecConf>
ND

> <projPath>
Cereblon_maps/

> <NAME_>
Cereblon_5L2I_1.pdb

$$$$
