Cereblon_3HLL_13.pdb
  MOLSOFT 04032206203D

 30 32  0  0  1  0  0  0  0  0999 V2000
   78.9587   42.3499   42.8086 C   0  0  0  0  0  0  0  0  0  0  0  0
   78.1532   42.0563   41.7209 C   0  0  0  0  0  0  0  0  0  0  0  0
   78.1613   42.8624   40.6132 C   0  0  0  0  0  0  0  0  0  0  0  0
   77.2320   42.3016   39.6249 C   0  0  0  0  0  0  0  0  0  0  0  0
   77.0138   42.7686   38.5143 O   0  0  0  0  0  0  0  0  0  0  0  0
   76.7069   41.1570   40.1928 N   0  0  0  0  0  0  0  0  0  0  0  0
   75.6922   40.3302   39.5345 C   0  0  2  0  0  0  0  0  0  0  0  0
   74.3099   40.9162   39.7941 C   0  0  0  0  0  0  0  0  0  0  0  0
   74.1233   42.1041   40.0021 O   0  0  0  0  0  0  0  0  0  0  0  0
   73.2537   40.0424   39.7085 N   0  0  0  0  0  0  0  0  0  0  0  0
   73.2840   38.6931   39.4569 C   0  0  0  0  0  0  0  0  0  0  0  0
   72.2633   38.0274   39.3975 O   0  0  0  0  0  0  0  0  0  0  0  0
   74.6463   38.0959   39.2055 C   0  0  0  0  0  0  0  0  0  0  0  0
   75.7291   38.8626   39.9436 C   0  0  0  0  0  0  0  0  0  0  0  0
   77.2295   40.9109   41.5271 C   0  0  0  0  0  0  0  0  0  0  0  0
   78.9670   43.9791   40.5058 C   0  0  0  0  0  0  0  0  0  0  0  0
   79.7873   44.2706   41.5870 C   0  0  0  0  0  0  0  0  0  0  0  0
   79.7816   43.4667   42.7249 C   0  0  0  0  0  0  0  0  0  0  0  0
   78.9577   41.7247   43.6968 H   0  0  0  0  0  0  0  0  0  0  0  0
   75.8561   40.4207   38.4585 H   0  0  0  0  0  0  0  0  0  0  0  0
   72.3368   40.4470   39.8521 H   0  0  0  0  0  0  0  0  0  0  0  0
   74.6390   37.0538   39.5404 H   0  0  0  0  0  0  0  0  0  0  0  0
   74.8231   38.1044   38.1254 H   0  0  0  0  0  0  0  0  0  0  0  0
   75.5726   38.7582   41.0220 H   0  0  0  0  0  0  0  0  0  0  0  0
   76.7106   38.4299   39.7236 H   0  0  0  0  0  0  0  0  0  0  0  0
   77.7720   39.9595   41.5397 H   0  0  0  0  0  0  0  0  0  0  0  0
   76.4198   40.9104   42.2597 H   0  0  0  0  0  0  0  0  0  0  0  0
   78.9554   44.5982   39.6161 H   0  0  0  0  0  0  0  0  0  0  0  0
   80.4348   45.1392   41.5488 H   0  0  0  0  0  0  0  0  0  0  0  0
   80.4300   43.7168   43.5596 H   0  0  0  0  0  0  0  0  0  0  0  0
  1 19  1  0  0  0  0
  1 18  2  0  0  0  0
  1  2  1  0  0  0  0
  2  3  2  0  0  0  0
  2 15  1  0  0  0  0
  3 16  1  0  0  0  0
  3  4  1  0  0  0  0
  4  6  1  0  0  0  0
  4  5  2  0  0  0  0
  6 15  1  0  0  0  0
  7  6  1  0  0  0  0
  7 20  1  0  0  0  0
  7  8  1  0  0  0  0
  7 14  1  0  0  0  0
  8  9  2  0  0  0  0
  8 10  1  0  0  0  0
 10 21  1  0  0  0  0
 10 11  1  0  0  0  0
 11 12  2  0  0  0  0
 11 13  1  0  0  0  0
 13 22  1  0  0  0  0
 13 23  1  0  0  0  0
 13 14  1  0  0  0  0
 14 24  1  0  0  0  0
 14 25  1  0  0  0  0
 15 26  1  0  0  0  0
 15 27  1  0  0  0  0
 16 17  2  0  0  0  0
 16 28  1  0  0  0  0
 17 18  1  0  0  0  0
 17 29  1  0  0  0  0
 18 30  1  0  0  0  0
M  ZZC   1 c1
M  ZZC   2 c2
M  ZZC   3 c3
M  ZZC   4 c4
M  ZZC   5 o1
M  ZZC   6 n1
M  ZZC   7 c5
M  ZZC   8 c6
M  ZZC   9 o2
M  ZZC  10 n2
M  ZZC  11 c7
M  ZZC  12 o3
M  ZZC  13 c8
M  ZZC  14 c9
M  ZZC  15 c10
M  ZZC  16 c11
M  ZZC  17 c12
M  ZZC  18 c13
M  ZZC  19 h11
M  ZZC  20 h51
M  ZZC  21 h21
M  ZZC  22 h81
M  ZZC  23 h82
M  ZZC  24 h91
M  ZZC  25 h92
M  ZZC  26 h101
M  ZZC  27 h102
M  ZZC  28 h111
M  ZZC  29 h121
M  ZZC  30 h131
M  ZZM   1 37
M  ZZI   1 125
M  ZZM   2 37
M  ZZI   2 124
M  ZZM   3 37
M  ZZI   3 124
M  ZZM   4 3
M  ZZI   4 121
M  ZZM   5 7
M  ZZI   5 81
M  ZZM   6 10
M  ZZI   6 192
M  ZZM   7 1
M  ZZI   7 113
M  ZZM   8 3
M  ZZI   8 121
M  ZZM   9 7
M  ZZI   9 81
M  ZZM  10 10
M  ZZI  10 191
M  ZZM  11 3
M  ZZI  11 121
M  ZZM  12 7
M  ZZI  12 81
M  ZZM  13 1
M  ZZI  13 112
M  ZZM  14 1
M  ZZI  14 112
M  ZZM  15 1
M  ZZI  15 112
M  ZZM  16 37
M  ZZI  16 125
M  ZZM  17 37
M  ZZI  17 125
M  ZZM  18 37
M  ZZI  18 125
M  ZZM  19 5
M  ZZI  19 1
M  ZZM  20 5
M  ZZI  20 1
M  ZZM  21 28
M  ZZI  21 11
M  ZZM  22 5
M  ZZI  22 1
M  ZZM  23 5
M  ZZI  23 1
M  ZZM  24 5
M  ZZI  24 1
M  ZZM  25 5
M  ZZI  25 1
M  ZZM  26 5
M  ZZI  26 1
M  ZZM  27 5
M  ZZI  27 1
M  ZZM  28 5
M  ZZI  28 1
M  ZZM  29 5
M  ZZI  29 1
M  ZZM  30 5
M  ZZI  30 1
M  END
> <IX>
1

> <NAME>
Cereblon_3HLL_13.pdb

> <Score>
-18.846077

> <Natom>
30

> <Nflex>
1

> <Hbond>
-3.270752

> <Hphob>
-3.9066

> <VwInt>
-21.061062

> <Dsolv>
10.932099

> <SolEl>
5.577775

> <Eintl>
1.045006

> <RecConf>
ND

> <projPath>
Cereblon_maps/

> <NAME_>
Cereblon_3HLL_13.pdb

$$$$
