Cereblon_5TOB_16.pdb
  MOLSOFT 04032206263D

 29 31  0  0  1  0  0  0  0  0999 V2000
   77.0202   40.7594   41.5106 C   0  0  0  0  0  0  0  0  0  0  0  0
   76.1475   40.4078   40.4955 C   0  0  0  0  0  0  0  0  0  0  0  0
   75.2164   41.2323   39.7292 C   0  0  0  0  0  0  0  0  0  0  0  0
   75.0184   42.4158   39.9468 O   0  0  0  0  0  0  0  0  0  0  0  0
   74.6291   40.4077   38.7970 N   0  0  0  0  0  0  0  0  0  0  0  0
   75.0229   39.1017   38.9891 C   0  0  0  0  0  0  0  0  0  0  0  0
   74.6222   38.0839   38.4436 O   0  0  0  0  0  0  0  0  0  0  0  0
   76.0275   39.1256   40.0534 C   0  0  0  0  0  0  0  0  0  0  0  0
   76.7677   38.0916   40.5974 C   0  0  0  0  0  0  0  0  0  0  0  0
   77.6444   38.4201   41.6264 C   0  0  0  0  0  0  0  0  0  0  0  0
   77.7660   39.7344   42.0779 C   0  0  0  0  0  0  0  0  0  0  0  0
   73.5849   40.8236   37.8562 C   0  0  2  0  0  0  0  0  0  0  0  0
   74.0160   42.0652   37.0762 C   0  0  0  0  0  0  0  0  0  0  0  0
   75.1846   42.3383   36.8407 O   0  0  0  0  0  0  0  0  0  0  0  0
   72.9960   42.8482   36.5855 N   0  0  0  0  0  0  0  0  0  0  0  0
   71.6402   42.7018   36.7613 C   0  0  0  0  0  0  0  0  0  0  0  0
   70.8368   43.4992   36.3014 O   0  0  0  0  0  0  0  0  0  0  0  0
   71.2058   41.4702   37.5177 C   0  0  0  0  0  0  0  0  0  0  0  0
   72.2444   41.0479   38.5445 C   0  0  0  0  0  0  0  0  0  0  0  0
   77.1246   41.7852   41.8523 H   0  0  0  0  0  0  0  0  0  0  0  0
   76.6681   37.0699   40.2433 H   0  0  0  0  0  0  0  0  0  0  0  0
   78.2447   37.6415   42.0876 H   0  0  0  0  0  0  0  0  0  0  0  0
   78.4532   39.9599   42.8881 H   0  0  0  0  0  0  0  0  0  0  0  0
   73.4673   40.0198   37.1205 H   0  0  0  0  0  0  0  0  0  0  0  0
   73.2801   43.6679   36.0667 H   0  0  0  0  0  0  0  0  0  0  0  0
   70.2572   41.6872   38.0177 H   0  0  0  0  0  0  0  0  0  0  0  0
   71.0282   40.6705   36.7919 H   0  0  0  0  0  0  0  0  0  0  0  0
   71.9162   40.1313   39.0457 H   0  0  0  0  0  0  0  0  0  0  0  0
   72.3353   41.8086   39.3261 H   0  0  0  0  0  0  0  0  0  0  0  0
  1 20  1  0  0  0  0
  1  2  1  0  0  0  0
  1 11  2  0  0  0  0
  2  3  1  0  0  0  0
  2  8  2  0  0  0  0
  3  4  2  0  0  0  0
  3  5  1  0  0  0  0
  5  6  1  0  0  0  0
 12  5  1  0  0  0  0
  6  7  2  0  0  0  0
  6  8  1  0  0  0  0
  8  9  1  0  0  0  0
  9 21  1  0  0  0  0
  9 10  2  0  0  0  0
 10 22  1  0  0  0  0
 10 11  1  0  0  0  0
 11 23  1  0  0  0  0
 12 24  1  0  0  0  0
 12 13  1  0  0  0  0
 12 19  1  0  0  0  0
 13 14  2  0  0  0  0
 13 15  1  0  0  0  0
 15 25  1  0  0  0  0
 15 16  1  0  0  0  0
 16 17  2  0  0  0  0
 16 18  1  0  0  0  0
 18 26  1  0  0  0  0
 18 27  1  0  0  0  0
 18 19  1  0  0  0  0
 19 28  1  0  0  0  0
 19 29  1  0  0  0  0
M  ZZC   1 c1
M  ZZC   2 c2
M  ZZC   3 c3
M  ZZC   4 o1
M  ZZC   5 n1
M  ZZC   6 c4
M  ZZC   7 o2
M  ZZC   8 c5
M  ZZC   9 c6
M  ZZC  10 c7
M  ZZC  11 c8
M  ZZC  12 c9
M  ZZC  13 c10
M  ZZC  14 o3
M  ZZC  15 n2
M  ZZC  16 c11
M  ZZC  17 o4
M  ZZC  18 c12
M  ZZC  19 c13
M  ZZC  20 h11
M  ZZC  21 h61
M  ZZC  22 h71
M  ZZC  23 h81
M  ZZC  24 h91
M  ZZC  25 h21
M  ZZC  26 h121
M  ZZC  27 h122
M  ZZC  28 h131
M  ZZC  29 h132
M  ZZM   1 37
M  ZZI   1 125
M  ZZM   2 37
M  ZZI   2 124
M  ZZM   3 3
M  ZZI   3 121
M  ZZM   4 7
M  ZZI   4 81
M  ZZM   5 10
M  ZZI   5 192
M  ZZM   6 3
M  ZZI   6 121
M  ZZM   7 7
M  ZZI   7 81
M  ZZM   8 37
M  ZZI   8 124
M  ZZM   9 37
M  ZZI   9 125
M  ZZM  10 37
M  ZZI  10 125
M  ZZM  11 37
M  ZZI  11 125
M  ZZM  12 1
M  ZZI  12 113
M  ZZM  13 3
M  ZZI  13 121
M  ZZM  14 7
M  ZZI  14 81
M  ZZM  15 10
M  ZZI  15 191
M  ZZM  16 3
M  ZZI  16 121
M  ZZM  17 7
M  ZZI  17 81
M  ZZM  18 1
M  ZZI  18 112
M  ZZM  19 1
M  ZZI  19 112
M  ZZM  20 5
M  ZZI  20 1
M  ZZM  21 5
M  ZZI  21 1
M  ZZM  22 5
M  ZZI  22 1
M  ZZM  23 5
M  ZZI  23 1
M  ZZM  24 5
M  ZZI  24 1
M  ZZM  25 28
M  ZZI  25 11
M  ZZM  26 5
M  ZZI  26 1
M  ZZM  27 5
M  ZZI  27 1
M  ZZM  28 5
M  ZZI  28 1
M  ZZM  29 5
M  ZZI  29 1
M  END
> <IX>
1

> <NAME>
Cereblon_5TOB_16.pdb

> <Score>
-17.708171

> <Natom>
29

> <Nflex>
1

> <Hbond>
-4.56639

> <Hphob>
-3.603278

> <VwInt>
-21.396726

> <Dsolv>
14.643719

> <SolEl>
7.166278

> <Eintl>
2.238641

> <RecConf>
ND

> <projPath>
Cereblon_maps/

> <NAME_>
Cereblon_5TOB_16.pdb

$$$$
