Cereblon_5VBP_10.pdb
  MOLSOFT 04032206273D

 29 31  0  0  1  0  0  0  0  0999 V2000
   76.3120   40.4891   40.6527 C   0  0  0  0  0  0  0  0  0  0  0  0
   75.3227   40.2816   39.7087 C   0  0  0  0  0  0  0  0  0  0  0  0
   74.4518   41.2467   39.0443 C   0  0  0  0  0  0  0  0  0  0  0  0
   74.4454   42.4319   39.3393 O   0  0  0  0  0  0  0  0  0  0  0  0
   73.6891   40.5324   38.1377 N   0  0  0  0  0  0  0  0  0  0  0  0
   73.9540   39.1813   38.2451 C   0  0  0  0  0  0  0  0  0  0  0  0
   73.4481   38.2407   37.6507 O   0  0  0  0  0  0  0  0  0  0  0  0
   75.0115   39.0416   39.2448 C   0  0  0  0  0  0  0  0  0  0  0  0
   75.6577   37.9068   39.7003 C   0  0  0  0  0  0  0  0  0  0  0  0
   76.6548   38.0906   40.6524 C   0  0  0  0  0  0  0  0  0  0  0  0
   76.9780   39.3637   41.1218 C   0  0  0  0  0  0  0  0  0  0  0  0
   72.6591   41.0715   37.2369 C   0  0  1  0  0  0  0  0  0  0  0  0
   71.3517   41.2752   37.9959 C   0  0  0  0  0  0  0  0  0  0  0  0
   71.0380   40.6190   38.9784 O   0  0  0  0  0  0  0  0  0  0  0  0
   70.4822   42.1967   37.4582 N   0  0  0  0  0  0  0  0  0  0  0  0
   70.6729   43.0451   36.3994 C   0  0  0  0  0  0  0  0  0  0  0  0
   69.8482   43.9000   36.1140 O   0  0  0  0  0  0  0  0  0  0  0  0
   71.9439   42.8347   35.6159 C   0  0  0  0  0  0  0  0  0  0  0  0
   73.0719   42.3523   36.5144 C   0  0  0  0  0  0  0  0  0  0  0  0
   76.5666   41.4831   41.0070 H   0  0  0  0  0  0  0  0  0  0  0  0
   75.4046   36.9186   39.3275 H   0  0  0  0  0  0  0  0  0  0  0  0
   77.1933   37.2293   41.0356 H   0  0  0  0  0  0  0  0  0  0  0  0
   77.7619   39.4787   41.8646 H   0  0  0  0  0  0  0  0  0  0  0  0
   72.4484   40.3011   36.4859 H   0  0  0  0  0  0  0  0  0  0  0  0
   69.6117   42.3259   37.9527 H   0  0  0  0  0  0  0  0  0  0  0  0
   71.7416   42.1171   34.8136 H   0  0  0  0  0  0  0  0  0  0  0  0
   72.2203   43.7878   35.1604 H   0  0  0  0  0  0  0  0  0  0  0  0
   73.3176   43.1445   37.2269 H   0  0  0  0  0  0  0  0  0  0  0  0
   73.9744   42.1780   35.9200 H   0  0  0  0  0  0  0  0  0  0  0  0
  1 20  1  0  0  0  0
  1  2  1  0  0  0  0
  1 11  2  0  0  0  0
  2  3  1  0  0  0  0
  2  8  2  0  0  0  0
  3  4  2  0  0  0  0
  3  5  1  0  0  0  0
  5  6  1  0  0  0  0
 12  5  1  0  0  0  0
  6  7  2  0  0  0  0
  6  8  1  0  0  0  0
  8  9  1  0  0  0  0
  9 21  1  0  0  0  0
  9 10  2  0  0  0  0
 10 22  1  0  0  0  0
 10 11  1  0  0  0  0
 11 23  1  0  0  0  0
 12 24  1  0  0  0  0
 12 13  1  0  0  0  0
 12 19  1  0  0  0  0
 13 14  2  0  0  0  0
 13 15  1  0  0  0  0
 15 25  1  0  0  0  0
 15 16  1  0  0  0  0
 16 17  2  0  0  0  0
 16 18  1  0  0  0  0
 18 26  1  0  0  0  0
 18 27  1  0  0  0  0
 18 19  1  0  0  0  0
 19 28  1  0  0  0  0
 19 29  1  0  0  0  0
M  ZZC   1 c1
M  ZZC   2 c2
M  ZZC   3 c3
M  ZZC   4 o1
M  ZZC   5 n1
M  ZZC   6 c4
M  ZZC   7 o2
M  ZZC   8 c5
M  ZZC   9 c6
M  ZZC  10 c7
M  ZZC  11 c8
M  ZZC  12 c9
M  ZZC  13 c10
M  ZZC  14 o3
M  ZZC  15 n2
M  ZZC  16 c11
M  ZZC  17 o4
M  ZZC  18 c12
M  ZZC  19 c13
M  ZZC  20 h11
M  ZZC  21 h61
M  ZZC  22 h71
M  ZZC  23 h81
M  ZZC  24 h91
M  ZZC  25 h21
M  ZZC  26 h121
M  ZZC  27 h122
M  ZZC  28 h131
M  ZZC  29 h132
M  ZZM   1 37
M  ZZI   1 125
M  ZZM   2 37
M  ZZI   2 124
M  ZZM   3 3
M  ZZI   3 121
M  ZZM   4 7
M  ZZI   4 81
M  ZZM   5 10
M  ZZI   5 192
M  ZZM   6 3
M  ZZI   6 121
M  ZZM   7 7
M  ZZI   7 81
M  ZZM   8 37
M  ZZI   8 124
M  ZZM   9 37
M  ZZI   9 125
M  ZZM  10 37
M  ZZI  10 125
M  ZZM  11 37
M  ZZI  11 125
M  ZZM  12 1
M  ZZI  12 113
M  ZZM  13 3
M  ZZI  13 121
M  ZZM  14 7
M  ZZI  14 81
M  ZZM  15 10
M  ZZI  15 191
M  ZZM  16 3
M  ZZI  16 121
M  ZZM  17 7
M  ZZI  17 81
M  ZZM  18 1
M  ZZI  18 112
M  ZZM  19 1
M  ZZI  19 112
M  ZZM  20 5
M  ZZI  20 1
M  ZZM  21 5
M  ZZI  21 1
M  ZZM  22 5
M  ZZI  22 1
M  ZZM  23 5
M  ZZI  23 1
M  ZZM  24 5
M  ZZI  24 1
M  ZZM  25 28
M  ZZI  25 11
M  ZZM  26 5
M  ZZI  26 1
M  ZZM  27 5
M  ZZI  27 1
M  ZZM  28 5
M  ZZI  28 1
M  ZZM  29 5
M  ZZI  29 1
M  END
> <IX>
1

> <NAME>
Cereblon_5VBP_10.pdb

> <Score>
-20.717199

> <Natom>
29

> <Nflex>
1

> <Hbond>
-4.577017

> <Hphob>
-3.519568

> <VwInt>
-22.351372

> <Dsolv>
13.428153

> <SolEl>
6.902197

> <Eintl>
0.575954

> <RecConf>
ND

> <projPath>
Cereblon_maps/

> <NAME_>
Cereblon_5VBP_10.pdb

$$$$
