Cereblon_4QNQ_50.pdb
  MOLSOFT 04032206243D

 31 33  0  0  1  0  0  0  0  0999 V2000
   66.4978   38.6689   41.4248 N   0  0  0  0  0  0  0  0  0  0  0  0
   66.6661   38.0370   40.1856 C   0  0  0  0  0  0  0  0  0  0  0  0
   67.8856   38.0274   39.5342 C   0  0  0  0  0  0  0  0  0  0  0  0
   69.1234   38.7305   39.8739 C   0  0  0  0  0  0  0  0  0  0  0  0
   69.2366   39.4908   40.8272 O   0  0  0  0  0  0  0  0  0  0  0  0
   70.0250   38.4216   38.8740 N   0  0  0  0  0  0  0  0  0  0  0  0
   69.4524   37.5980   37.9268 C   0  0  0  0  0  0  0  0  0  0  0  0
   69.9349   37.1441   36.8994 O   0  0  0  0  0  0  0  0  0  0  0  0
   68.0813   37.3538   38.3666 C   0  0  0  0  0  0  0  0  0  0  0  0
   67.0809   36.6143   37.7641 C   0  0  0  0  0  0  0  0  0  0  0  0
   65.8583   36.5692   38.4215 C   0  0  0  0  0  0  0  0  0  0  0  0
   65.6622   37.2567   39.6199 C   0  0  0  0  0  0  0  0  0  0  0  0
   71.3603   39.0050   38.7216 C   0  0  1  0  0  0  0  0  0  0  0  0
   71.1895   40.4787   38.3861 C   0  0  0  0  0  0  0  0  0  0  0  0
   70.1886   40.9125   37.8349 O   0  0  0  0  0  0  0  0  0  0  0  0
   72.2461   41.2957   38.7185 N   0  0  0  0  0  0  0  0  0  0  0  0
   73.3956   40.9703   39.3977 C   0  0  0  0  0  0  0  0  0  0  0  0
   74.1878   41.8172   39.7823 O   0  0  0  0  0  0  0  0  0  0  0  0
   73.6075   39.4939   39.6214 C   0  0  0  0  0  0  0  0  0  0  0  0
   72.2752   38.8279   39.9276 C   0  0  0  0  0  0  0  0  0  0  0  0
   65.5486   38.8872   41.7137 H   0  0  0  0  0  0  0  0  0  0  0  0
   67.2162   39.3344   41.7085 H   0  0  0  0  0  0  0  0  0  0  0  0
   67.2406   36.0923   36.8252 H   0  0  0  0  0  0  0  0  0  0  0  0
   65.0439   35.9890   37.9982 H   0  0  0  0  0  0  0  0  0  0  0  0
   64.6983   37.1874   40.1141 H   0  0  0  0  0  0  0  0  0  0  0  0
   71.8294   38.5434   37.8449 H   0  0  0  0  0  0  0  0  0  0  0  0
   72.1204   42.2779   38.5165 H   0  0  0  0  0  0  0  0  0  0  0  0
   74.0688   39.0692   38.7231 H   0  0  0  0  0  0  0  0  0  0  0  0
   74.3080   39.3526   40.4476 H   0  0  0  0  0  0  0  0  0  0  0  0
   72.4241   37.7640   40.1388 H   0  0  0  0  0  0  0  0  0  0  0  0
   71.8359   39.2761   40.8260 H   0  0  0  0  0  0  0  0  0  0  0  0
  1  2  1  0  0  0  0
  1 21  1  0  0  0  0
  1 22  1  0  0  0  0
  2  3  1  0  0  0  0
  2 12  2  0  0  0  0
  3  9  2  0  0  0  0
  3  4  1  0  0  0  0
  4  5  2  0  0  0  0
  4  6  1  0  0  0  0
  6  7  1  0  0  0  0
 13  6  1  0  0  0  0
  7  8  2  0  0  0  0
  7  9  1  0  0  0  0
  9 10  1  0  0  0  0
 10 23  1  0  0  0  0
 10 11  2  0  0  0  0
 11 12  1  0  0  0  0
 11 24  1  0  0  0  0
 12 25  1  0  0  0  0
 13 26  1  0  0  0  0
 13 14  1  0  0  0  0
 13 20  1  0  0  0  0
 14 15  2  0  0  0  0
 14 16  1  0  0  0  0
 16 27  1  0  0  0  0
 16 17  1  0  0  0  0
 17 18  2  0  0  0  0
 17 19  1  0  0  0  0
 19 28  1  0  0  0  0
 19 29  1  0  0  0  0
 19 20  1  0  0  0  0
 20 30  1  0  0  0  0
 20 31  1  0  0  0  0
M  ZZC   1 n1
M  ZZC   2 c1
M  ZZC   3 c2
M  ZZC   4 c3
M  ZZC   5 o1
M  ZZC   6 n2
M  ZZC   7 c4
M  ZZC   8 o2
M  ZZC   9 c5
M  ZZC  10 c6
M  ZZC  11 c7
M  ZZC  12 c8
M  ZZC  13 c9
M  ZZC  14 c10
M  ZZC  15 o3
M  ZZC  16 n3
M  ZZC  17 c11
M  ZZC  18 o4
M  ZZC  19 c12
M  ZZC  20 c13
M  ZZC  21 h11
M  ZZC  22 h12
M  ZZC  23 h61
M  ZZC  24 h71
M  ZZC  25 h81
M  ZZC  26 h91
M  ZZC  27 h31
M  ZZC  28 h121
M  ZZC  29 h122
M  ZZC  30 h131
M  ZZC  31 h132
M  ZZM   1 40
M  ZZI   1 224
M  ZZM   2 37
M  ZZI   2 124
M  ZZM   3 37
M  ZZI   3 124
M  ZZM   4 3
M  ZZI   4 121
M  ZZM   5 7
M  ZZI   5 81
M  ZZM   6 10
M  ZZI   6 192
M  ZZM   7 3
M  ZZI   7 121
M  ZZM   8 7
M  ZZI   8 81
M  ZZM   9 37
M  ZZI   9 124
M  ZZM  10 37
M  ZZI  10 125
M  ZZM  11 37
M  ZZI  11 125
M  ZZM  12 37
M  ZZI  12 125
M  ZZM  13 1
M  ZZI  13 113
M  ZZM  14 3
M  ZZI  14 121
M  ZZM  15 7
M  ZZI  15 81
M  ZZM  16 10
M  ZZI  16 191
M  ZZM  17 3
M  ZZI  17 121
M  ZZM  18 7
M  ZZI  18 81
M  ZZM  19 1
M  ZZI  19 112
M  ZZM  20 1
M  ZZI  20 112
M  ZZM  21 28
M  ZZI  21 11
M  ZZM  22 28
M  ZZI  22 11
M  ZZM  23 5
M  ZZI  23 1
M  ZZM  24 5
M  ZZI  24 1
M  ZZM  25 5
M  ZZI  25 1
M  ZZM  26 5
M  ZZI  26 1
M  ZZM  27 28
M  ZZI  27 11
M  ZZM  28 5
M  ZZI  28 1
M  ZZM  29 5
M  ZZI  29 1
M  ZZM  30 5
M  ZZI  30 1
M  ZZM  31 5
M  ZZI  31 1
M  END
> <IX>
1

> <NAME>
Cereblon_4QNQ_50.pdb

> <Score>
-14.921699

> <Natom>
31

> <Nflex>
1

> <Hbond>
-5.190223

> <Hphob>
-2.842891

> <VwInt>
-16.872335

> <Dsolv>
17.223549

> <SolEl>
3.758845

> <Eintl>
1.646897

> <RecConf>
ND

> <projPath>
Cereblon_maps/

> <NAME_>
Cereblon_4QNQ_50.pdb

$$$$
