Cereblon_5V9O_7.pdb
  MOLSOFT 04032206273D

 29 31  0  0  1  0  0  0  0  0999 V2000
   79.0024   42.4801   42.6739 C   0  0  0  0  0  0  0  0  0  0  0  0
   78.1881   42.1847   41.5946 C   0  0  0  0  0  0  0  0  0  0  0  0
   77.2684   41.0683   41.4072 C   0  0  0  0  0  0  0  0  0  0  0  0
   77.0932   40.2014   42.2498 O   0  0  0  0  0  0  0  0  0  0  0  0
   76.7192   41.2205   40.1473 N   0  0  0  0  0  0  0  0  0  0  0  0
   77.2199   42.3459   39.5246 C   0  0  0  0  0  0  0  0  0  0  0  0
   76.9852   42.7655   38.3987 O   0  0  0  0  0  0  0  0  0  0  0  0
   78.1581   42.9524   40.4694 C   0  0  0  0  0  0  0  0  0  0  0  0
   78.9521   44.0732   40.3329 C   0  0  0  0  0  0  0  0  0  0  0  0
   79.7890   44.3841   41.3987 C   0  0  0  0  0  0  0  0  0  0  0  0
   79.8155   43.6006   42.5528 C   0  0  0  0  0  0  0  0  0  0  0  0
   75.7120   40.3667   39.5110 C   0  0  2  0  0  0  0  0  0  0  0  0
   74.3332   40.9412   39.7930 C   0  0  0  0  0  0  0  0  0  0  0  0
   74.1511   42.1271   40.0132 O   0  0  0  0  0  0  0  0  0  0  0  0
   73.2786   40.0663   39.6986 N   0  0  0  0  0  0  0  0  0  0  0  0
   73.3122   38.7220   39.4186 C   0  0  0  0  0  0  0  0  0  0  0  0
   72.2919   38.0583   39.3324 O   0  0  0  0  0  0  0  0  0  0  0  0
   74.6782   38.1282   39.1729 C   0  0  0  0  0  0  0  0  0  0  0  0
   75.7572   38.8970   39.9166 C   0  0  0  0  0  0  0  0  0  0  0  0
   79.0181   41.8597   43.5656 H   0  0  0  0  0  0  0  0  0  0  0  0
   78.9175   44.6803   39.4359 H   0  0  0  0  0  0  0  0  0  0  0  0
   80.4325   45.2540   41.3347 H   0  0  0  0  0  0  0  0  0  0  0  0
   80.4812   43.8688   43.3682 H   0  0  0  0  0  0  0  0  0  0  0  0
   75.8571   40.4519   38.4321 H   0  0  0  0  0  0  0  0  0  0  0  0
   72.3606   40.4657   39.8496 H   0  0  0  0  0  0  0  0  0  0  0  0
   74.6716   37.0857   39.5067 H   0  0  0  0  0  0  0  0  0  0  0  0
   74.8567   38.1372   38.0933 H   0  0  0  0  0  0  0  0  0  0  0  0
   75.5860   38.7805   40.9903 H   0  0  0  0  0  0  0  0  0  0  0  0
   76.7429   38.4725   39.7000 H   0  0  0  0  0  0  0  0  0  0  0  0
  1 20  1  0  0  0  0
  1  2  1  0  0  0  0
  1 11  2  0  0  0  0
  2  3  1  0  0  0  0
  2  8  2  0  0  0  0
  3  4  2  0  0  0  0
  3  5  1  0  0  0  0
  5  6  1  0  0  0  0
 12  5  1  0  0  0  0
  6  7  2  0  0  0  0
  6  8  1  0  0  0  0
  8  9  1  0  0  0  0
  9 21  1  0  0  0  0
  9 10  2  0  0  0  0
 10 22  1  0  0  0  0
 10 11  1  0  0  0  0
 11 23  1  0  0  0  0
 12 24  1  0  0  0  0
 12 13  1  0  0  0  0
 12 19  1  0  0  0  0
 13 14  2  0  0  0  0
 13 15  1  0  0  0  0
 15 25  1  0  0  0  0
 15 16  1  0  0  0  0
 16 17  2  0  0  0  0
 16 18  1  0  0  0  0
 18 26  1  0  0  0  0
 18 27  1  0  0  0  0
 18 19  1  0  0  0  0
 19 28  1  0  0  0  0
 19 29  1  0  0  0  0
M  ZZC   1 c1
M  ZZC   2 c2
M  ZZC   3 c3
M  ZZC   4 o1
M  ZZC   5 n1
M  ZZC   6 c4
M  ZZC   7 o2
M  ZZC   8 c5
M  ZZC   9 c6
M  ZZC  10 c7
M  ZZC  11 c8
M  ZZC  12 c9
M  ZZC  13 c10
M  ZZC  14 o3
M  ZZC  15 n2
M  ZZC  16 c11
M  ZZC  17 o4
M  ZZC  18 c12
M  ZZC  19 c13
M  ZZC  20 h11
M  ZZC  21 h61
M  ZZC  22 h71
M  ZZC  23 h81
M  ZZC  24 h91
M  ZZC  25 h21
M  ZZC  26 h121
M  ZZC  27 h122
M  ZZC  28 h131
M  ZZC  29 h132
M  ZZM   1 37
M  ZZI   1 125
M  ZZM   2 37
M  ZZI   2 124
M  ZZM   3 3
M  ZZI   3 121
M  ZZM   4 7
M  ZZI   4 81
M  ZZM   5 10
M  ZZI   5 192
M  ZZM   6 3
M  ZZI   6 121
M  ZZM   7 7
M  ZZI   7 81
M  ZZM   8 37
M  ZZI   8 124
M  ZZM   9 37
M  ZZI   9 125
M  ZZM  10 37
M  ZZI  10 125
M  ZZM  11 37
M  ZZI  11 125
M  ZZM  12 1
M  ZZI  12 113
M  ZZM  13 3
M  ZZI  13 121
M  ZZM  14 7
M  ZZI  14 81
M  ZZM  15 10
M  ZZI  15 191
M  ZZM  16 3
M  ZZI  16 121
M  ZZM  17 7
M  ZZI  17 81
M  ZZM  18 1
M  ZZI  18 112
M  ZZM  19 1
M  ZZI  19 112
M  ZZM  20 5
M  ZZI  20 1
M  ZZM  21 5
M  ZZI  21 1
M  ZZM  22 5
M  ZZI  22 1
M  ZZM  23 5
M  ZZI  23 1
M  ZZM  24 5
M  ZZI  24 1
M  ZZM  25 28
M  ZZI  25 11
M  ZZM  26 5
M  ZZI  26 1
M  ZZM  27 5
M  ZZI  27 1
M  ZZM  28 5
M  ZZI  28 1
M  ZZM  29 5
M  ZZI  29 1
M  END
> <IX>
1

> <NAME>
Cereblon_5V9O_7.pdb

> <Score>
-19.364039

> <Natom>
29

> <Nflex>
1

> <Hbond>
-3.368353

> <Hphob>
-3.560674

> <VwInt>
-22.679483

> <Dsolv>
12.110147

> <SolEl>
5.485092

> <Eintl>
1.533764

> <RecConf>
ND

> <projPath>
Cereblon_maps/

> <NAME_>
Cereblon_5V9O_7.pdb

$$$$
