Cereblon_5HZN_4.pdb
  MOLSOFT 04032206243D

 31 33  0  0  1  0  0  0  0  0999 V2000
   78.7228   41.7150   43.8974 N   0  0  0  0  0  0  0  0  0  0  0  0
   78.7888   42.4966   42.7326 C   0  0  0  0  0  0  0  0  0  0  0  0
   78.0735   42.1748   41.5912 C   0  0  0  0  0  0  0  0  0  0  0  0
   77.1601   41.0617   41.3697 C   0  0  0  0  0  0  0  0  0  0  0  0
   76.9392   40.2014   42.2086 O   0  0  0  0  0  0  0  0  0  0  0  0
   76.6701   41.2041   40.0870 N   0  0  0  0  0  0  0  0  0  0  0  0
   77.2036   42.3211   39.4773 C   0  0  0  0  0  0  0  0  0  0  0  0
   77.0027   42.7430   38.3458 O   0  0  0  0  0  0  0  0  0  0  0  0
   78.1146   42.9225   40.4535 C   0  0  0  0  0  0  0  0  0  0  0  0
   78.9360   44.0256   40.3420 C   0  0  0  0  0  0  0  0  0  0  0  0
   79.7247   44.3324   41.4452 C   0  0  0  0  0  0  0  0  0  0  0  0
   79.6562   43.5792   42.6192 C   0  0  0  0  0  0  0  0  0  0  0  0
   75.6536   40.3711   39.4410 C   0  0  2  0  0  0  0  0  0  0  0  0
   74.2818   40.9552   39.7347 C   0  0  0  0  0  0  0  0  0  0  0  0
   74.1141   42.1375   39.9841 O   0  0  0  0  0  0  0  0  0  0  0  0
   73.2186   40.0930   39.6212 N   0  0  0  0  0  0  0  0  0  0  0  0
   73.2401   38.7535   39.3165 C   0  0  0  0  0  0  0  0  0  0  0  0
   72.2139   38.1017   39.2127 O   0  0  0  0  0  0  0  0  0  0  0  0
   74.6017   38.1510   39.0650 C   0  0  0  0  0  0  0  0  0  0  0  0
   75.6803   38.8965   39.8311 C   0  0  0  0  0  0  0  0  0  0  0  0
   78.9764   42.1365   44.7897 H   0  0  0  0  0  0  0  0  0  0  0  0
   78.0362   40.9593   43.9215 H   0  0  0  0  0  0  0  0  0  0  0  0
   78.9678   44.6146   39.4332 H   0  0  0  0  0  0  0  0  0  0  0  0
   80.3996   45.1799   41.3982 H   0  0  0  0  0  0  0  0  0  0  0  0
   80.2857   43.8518   43.4608 H   0  0  0  0  0  0  0  0  0  0  0  0
   75.7979   40.4694   38.3637 H   0  0  0  0  0  0  0  0  0  0  0  0
   72.3040   40.4985   39.7772 H   0  0  0  0  0  0  0  0  0  0  0  0
   74.5831   37.1032   39.3814 H   0  0  0  0  0  0  0  0  0  0  0  0
   74.7899   38.1761   37.9872 H   0  0  0  0  0  0  0  0  0  0  0  0
   76.6643   38.4625   39.6266 H   0  0  0  0  0  0  0  0  0  0  0  0
   75.4922   38.7703   40.9012 H   0  0  0  0  0  0  0  0  0  0  0  0
  1  2  1  0  0  0  0
  1 21  1  0  0  0  0
  1 22  1  0  0  0  0
  2  3  1  0  0  0  0
  2 12  2  0  0  0  0
  3  9  2  0  0  0  0
  3  4  1  0  0  0  0
  4  5  2  0  0  0  0
  4  6  1  0  0  0  0
  6  7  1  0  0  0  0
 13  6  1  0  0  0  0
  7  8  2  0  0  0  0
  7  9  1  0  0  0  0
  9 10  1  0  0  0  0
 10 23  1  0  0  0  0
 10 11  2  0  0  0  0
 11 12  1  0  0  0  0
 11 24  1  0  0  0  0
 12 25  1  0  0  0  0
 13 26  1  0  0  0  0
 13 14  1  0  0  0  0
 13 20  1  0  0  0  0
 14 15  2  0  0  0  0
 14 16  1  0  0  0  0
 16 27  1  0  0  0  0
 16 17  1  0  0  0  0
 17 18  2  0  0  0  0
 17 19  1  0  0  0  0
 19 28  1  0  0  0  0
 19 29  1  0  0  0  0
 19 20  1  0  0  0  0
 20 30  1  0  0  0  0
 20 31  1  0  0  0  0
M  ZZC   1 n1
M  ZZC   2 c1
M  ZZC   3 c2
M  ZZC   4 c3
M  ZZC   5 o1
M  ZZC   6 n2
M  ZZC   7 c4
M  ZZC   8 o2
M  ZZC   9 c5
M  ZZC  10 c6
M  ZZC  11 c7
M  ZZC  12 c8
M  ZZC  13 c9
M  ZZC  14 c10
M  ZZC  15 o3
M  ZZC  16 n3
M  ZZC  17 c11
M  ZZC  18 o4
M  ZZC  19 c12
M  ZZC  20 c13
M  ZZC  21 h11
M  ZZC  22 h12
M  ZZC  23 h61
M  ZZC  24 h71
M  ZZC  25 h81
M  ZZC  26 h91
M  ZZC  27 h31
M  ZZC  28 h121
M  ZZC  29 h122
M  ZZC  30 h131
M  ZZC  31 h132
M  ZZM   1 40
M  ZZI   1 224
M  ZZM   2 37
M  ZZI   2 124
M  ZZM   3 37
M  ZZI   3 124
M  ZZM   4 3
M  ZZI   4 121
M  ZZM   5 7
M  ZZI   5 81
M  ZZM   6 10
M  ZZI   6 192
M  ZZM   7 3
M  ZZI   7 121
M  ZZM   8 7
M  ZZI   8 81
M  ZZM   9 37
M  ZZI   9 124
M  ZZM  10 37
M  ZZI  10 125
M  ZZM  11 37
M  ZZI  11 125
M  ZZM  12 37
M  ZZI  12 125
M  ZZM  13 1
M  ZZI  13 113
M  ZZM  14 3
M  ZZI  14 121
M  ZZM  15 7
M  ZZI  15 81
M  ZZM  16 10
M  ZZI  16 191
M  ZZM  17 3
M  ZZI  17 121
M  ZZM  18 7
M  ZZI  18 81
M  ZZM  19 1
M  ZZI  19 112
M  ZZM  20 1
M  ZZI  20 112
M  ZZM  21 28
M  ZZI  21 11
M  ZZM  22 28
M  ZZI  22 11
M  ZZM  23 5
M  ZZI  23 1
M  ZZM  24 5
M  ZZI  24 1
M  ZZM  25 5
M  ZZI  25 1
M  ZZM  26 5
M  ZZI  26 1
M  ZZM  27 28
M  ZZI  27 11
M  ZZM  28 5
M  ZZI  28 1
M  ZZM  29 5
M  ZZI  29 1
M  ZZM  30 5
M  ZZI  30 1
M  ZZM  31 5
M  ZZI  31 1
M  END
> <IX>
1

> <NAME>
Cereblon_5HZN_4.pdb

> <Score>
-21.462547

> <Natom>
31

> <Nflex>
1

> <Hbond>
-4.870937

> <Hphob>
-3.549893

> <VwInt>
-23.963421

> <Dsolv>
15.189336

> <SolEl>
6.27058

> <Eintl>
1.78698

> <RecConf>
ND

> <projPath>
Cereblon_maps/

> <NAME_>
Cereblon_5HZN_4.pdb

$$$$
