Cereblon_6Z45_3.pdb
  MOLSOFT 04032206303D

 31 33  0  0  1  0  0  0  0  0999 V2000
   69.6572   40.8766   38.0806 N   0  0  0  0  0  0  0  0  0  0  0  0
   70.6269   41.6266   37.3989 C   0  0  0  0  0  0  0  0  0  0  0  0
   71.9676   41.5366   37.7266 C   0  0  0  0  0  0  0  0  0  0  0  0
   72.5906   40.8593   38.8573 C   0  0  0  0  0  0  0  0  0  0  0  0
   71.9777   40.2259   39.7065 O   0  0  0  0  0  0  0  0  0  0  0  0
   73.9439   41.0932   38.7508 N   0  0  0  0  0  0  0  0  0  0  0  0
   74.2367   41.8242   37.6159 C   0  0  0  0  0  0  0  0  0  0  0  0
   75.3234   42.1630   37.1667 O   0  0  0  0  0  0  0  0  0  0  0  0
   72.9466   42.1424   37.0023 C   0  0  0  0  0  0  0  0  0  0  0  0
   72.6473   42.9231   35.9057 C   0  0  0  0  0  0  0  0  0  0  0  0
   71.3072   43.0701   35.5696 C   0  0  0  0  0  0  0  0  0  0  0  0
   70.3127   42.4185   36.2974 C   0  0  0  0  0  0  0  0  0  0  0  0
   74.9061   40.5238   39.6912 C   0  0  2  0  0  0  0  0  0  0  0  0
   75.8630   41.5639   40.2375 C   0  0  0  0  0  0  0  0  0  0  0  0
   75.6399   42.7614   40.1777 O   0  0  0  0  0  0  0  0  0  0  0  0
   76.9691   41.0576   40.8797 N   0  0  0  0  0  0  0  0  0  0  0  0
   77.3415   39.7393   41.0056 C   0  0  0  0  0  0  0  0  0  0  0  0
   78.2707   39.3926   41.7162 O   0  0  0  0  0  0  0  0  0  0  0  0
   76.5019   38.7306   40.2574 C   0  0  0  0  0  0  0  0  0  0  0  0
   75.7182   39.3819   39.1312 C   0  0  0  0  0  0  0  0  0  0  0  0
   68.6676   40.9793   37.8368 H   0  0  0  0  0  0  0  0  0  0  0  0
   69.9252   40.4546   38.9751 H   0  0  0  0  0  0  0  0  0  0  0  0
   73.4265   43.4139   35.3456 H   0  0  0  0  0  0  0  0  0  0  0  0
   71.0297   43.6947   34.7257 H   0  0  0  0  0  0  0  0  0  0  0  0
   69.2770   42.5423   35.9983 H   0  0  0  0  0  0  0  0  0  0  0  0
   74.3249   40.1479   40.5334 H   0  0  0  0  0  0  0  0  0  0  0  0
   77.5756   41.7356   41.3238 H   0  0  0  0  0  0  0  0  0  0  0  0
   77.1676   37.9634   39.8493 H   0  0  0  0  0  0  0  0  0  0  0  0
   75.8264   38.2498   40.9719 H   0  0  0  0  0  0  0  0  0  0  0  0
   76.4131   39.7791   38.3906 H   0  0  0  0  0  0  0  0  0  0  0  0
   75.0747   38.6459   38.6380 H   0  0  0  0  0  0  0  0  0  0  0  0
  1  2  1  0  0  0  0
  1 21  1  0  0  0  0
  1 22  1  0  0  0  0
  2  3  1  0  0  0  0
  2 12  2  0  0  0  0
  3  9  2  0  0  0  0
  3  4  1  0  0  0  0
  4  5  2  0  0  0  0
  4  6  1  0  0  0  0
  6  7  1  0  0  0  0
 13  6  1  0  0  0  0
  7  8  2  0  0  0  0
  7  9  1  0  0  0  0
  9 10  1  0  0  0  0
 10 23  1  0  0  0  0
 10 11  2  0  0  0  0
 11 12  1  0  0  0  0
 11 24  1  0  0  0  0
 12 25  1  0  0  0  0
 13 26  1  0  0  0  0
 13 14  1  0  0  0  0
 13 20  1  0  0  0  0
 14 15  2  0  0  0  0
 14 16  1  0  0  0  0
 16 27  1  0  0  0  0
 16 17  1  0  0  0  0
 17 18  2  0  0  0  0
 17 19  1  0  0  0  0
 19 28  1  0  0  0  0
 19 29  1  0  0  0  0
 19 20  1  0  0  0  0
 20 30  1  0  0  0  0
 20 31  1  0  0  0  0
M  ZZC   1 n1
M  ZZC   2 c1
M  ZZC   3 c2
M  ZZC   4 c3
M  ZZC   5 o1
M  ZZC   6 n2
M  ZZC   7 c4
M  ZZC   8 o2
M  ZZC   9 c5
M  ZZC  10 c6
M  ZZC  11 c7
M  ZZC  12 c8
M  ZZC  13 c9
M  ZZC  14 c10
M  ZZC  15 o3
M  ZZC  16 n3
M  ZZC  17 c11
M  ZZC  18 o4
M  ZZC  19 c12
M  ZZC  20 c13
M  ZZC  21 h11
M  ZZC  22 h12
M  ZZC  23 h61
M  ZZC  24 h71
M  ZZC  25 h81
M  ZZC  26 h91
M  ZZC  27 h31
M  ZZC  28 h121
M  ZZC  29 h122
M  ZZC  30 h131
M  ZZC  31 h132
M  ZZM   1 40
M  ZZI   1 224
M  ZZM   2 37
M  ZZI   2 124
M  ZZM   3 37
M  ZZI   3 124
M  ZZM   4 3
M  ZZI   4 121
M  ZZM   5 7
M  ZZI   5 81
M  ZZM   6 10
M  ZZI   6 192
M  ZZM   7 3
M  ZZI   7 121
M  ZZM   8 7
M  ZZI   8 81
M  ZZM   9 37
M  ZZI   9 124
M  ZZM  10 37
M  ZZI  10 125
M  ZZM  11 37
M  ZZI  11 125
M  ZZM  12 37
M  ZZI  12 125
M  ZZM  13 1
M  ZZI  13 113
M  ZZM  14 3
M  ZZI  14 121
M  ZZM  15 7
M  ZZI  15 81
M  ZZM  16 10
M  ZZI  16 191
M  ZZM  17 3
M  ZZI  17 121
M  ZZM  18 7
M  ZZI  18 81
M  ZZM  19 1
M  ZZI  19 112
M  ZZM  20 1
M  ZZI  20 112
M  ZZM  21 28
M  ZZI  21 11
M  ZZM  22 28
M  ZZI  22 11
M  ZZM  23 5
M  ZZI  23 1
M  ZZM  24 5
M  ZZI  24 1
M  ZZM  25 5
M  ZZI  25 1
M  ZZM  26 5
M  ZZI  26 1
M  ZZM  27 28
M  ZZI  27 11
M  ZZM  28 5
M  ZZI  28 1
M  ZZM  29 5
M  ZZI  29 1
M  ZZM  30 5
M  ZZI  30 1
M  ZZM  31 5
M  ZZI  31 1
M  END
> <IX>
1

> <NAME>
Cereblon_6Z45_3.pdb

> <Score>
-4.052369

> <Natom>
31

> <Nflex>
1

> <Hbond>
-5.675259

> <Hphob>
-3.54423

> <VwInt>
-9.714581

> <Dsolv>
15.865

> <SolEl>
11.098915

> <Eintl>
4.285362

> <RecConf>
ND

> <projPath>
Cereblon_maps/

> <NAME_>
Cereblon_6Z45_3.pdb

$$$$
