Cereblon_5UIU_4.pdb
  MOLSOFT 04032206273D

 29 31  0  0  1  0  0  0  0  0999 V2000
   76.3147   40.4909   40.6542 C   0  0  0  0  0  0  0  0  0  0  0  0
   75.3255   40.2829   39.7104 C   0  0  0  0  0  0  0  0  0  0  0  0
   74.4543   41.2474   39.0457 C   0  0  0  0  0  0  0  0  0  0  0  0
   74.4453   42.4323   39.3413 O   0  0  0  0  0  0  0  0  0  0  0  0
   73.6922   40.5325   38.1391 N   0  0  0  0  0  0  0  0  0  0  0  0
   73.9573   39.1817   38.2472 C   0  0  0  0  0  0  0  0  0  0  0  0
   73.4513   38.2404   37.6536 O   0  0  0  0  0  0  0  0  0  0  0  0
   75.0146   39.0424   39.2471 C   0  0  0  0  0  0  0  0  0  0  0  0
   75.6611   37.9080   39.7030 C   0  0  0  0  0  0  0  0  0  0  0  0
   76.6584   38.0923   40.6546 C   0  0  0  0  0  0  0  0  0  0  0  0
   76.9810   39.3659   41.1238 C   0  0  0  0  0  0  0  0  0  0  0  0
   72.6613   41.0701   37.2385 C   0  0  1  0  0  0  0  0  0  0  0  0
   71.3545   41.2752   37.9979 C   0  0  0  0  0  0  0  0  0  0  0  0
   71.0425   40.6217   38.9827 O   0  0  0  0  0  0  0  0  0  0  0  0
   70.4841   42.1947   37.4585 N   0  0  0  0  0  0  0  0  0  0  0  0
   70.6748   43.0420   36.3986 C   0  0  0  0  0  0  0  0  0  0  0  0
   69.8504   43.8970   36.1125 O   0  0  0  0  0  0  0  0  0  0  0  0
   71.9453   42.8302   35.6150 C   0  0  0  0  0  0  0  0  0  0  0  0
   73.0736   42.3498   36.5143 C   0  0  0  0  0  0  0  0  0  0  0  0
   76.5687   41.4849   41.0084 H   0  0  0  0  0  0  0  0  0  0  0  0
   75.4081   36.9194   39.3310 H   0  0  0  0  0  0  0  0  0  0  0  0
   77.1962   37.2309   41.0383 H   0  0  0  0  0  0  0  0  0  0  0  0
   77.7642   39.4816   41.8672 H   0  0  0  0  0  0  0  0  0  0  0  0
   72.4497   40.2987   36.4887 H   0  0  0  0  0  0  0  0  0  0  0  0
   69.6142   42.3246   37.9537 H   0  0  0  0  0  0  0  0  0  0  0  0
   71.7431   42.1109   34.8138 H   0  0  0  0  0  0  0  0  0  0  0  0
   72.2217   43.7821   35.1572 H   0  0  0  0  0  0  0  0  0  0  0  0
   73.9756   42.1744   35.9196 H   0  0  0  0  0  0  0  0  0  0  0  0
   73.3189   43.1428   37.2258 H   0  0  0  0  0  0  0  0  0  0  0  0
  1 20  1  0  0  0  0
  1  2  1  0  0  0  0
  1 11  2  0  0  0  0
  2  3  1  0  0  0  0
  2  8  2  0  0  0  0
  3  4  2  0  0  0  0
  3  5  1  0  0  0  0
  5  6  1  0  0  0  0
 12  5  1  0  0  0  0
  6  7  2  0  0  0  0
  6  8  1  0  0  0  0
  8  9  1  0  0  0  0
  9 21  1  0  0  0  0
  9 10  2  0  0  0  0
 10 22  1  0  0  0  0
 10 11  1  0  0  0  0
 11 23  1  0  0  0  0
 12 24  1  0  0  0  0
 12 13  1  0  0  0  0
 12 19  1  0  0  0  0
 13 14  2  0  0  0  0
 13 15  1  0  0  0  0
 15 25  1  0  0  0  0
 15 16  1  0  0  0  0
 16 17  2  0  0  0  0
 16 18  1  0  0  0  0
 18 26  1  0  0  0  0
 18 27  1  0  0  0  0
 18 19  1  0  0  0  0
 19 28  1  0  0  0  0
 19 29  1  0  0  0  0
M  ZZC   1 c1
M  ZZC   2 c2
M  ZZC   3 c3
M  ZZC   4 o1
M  ZZC   5 n1
M  ZZC   6 c4
M  ZZC   7 o2
M  ZZC   8 c5
M  ZZC   9 c6
M  ZZC  10 c7
M  ZZC  11 c8
M  ZZC  12 c9
M  ZZC  13 c10
M  ZZC  14 o3
M  ZZC  15 n2
M  ZZC  16 c11
M  ZZC  17 o4
M  ZZC  18 c12
M  ZZC  19 c13
M  ZZC  20 h11
M  ZZC  21 h61
M  ZZC  22 h71
M  ZZC  23 h81
M  ZZC  24 h91
M  ZZC  25 h21
M  ZZC  26 h121
M  ZZC  27 h122
M  ZZC  28 h131
M  ZZC  29 h132
M  ZZM   1 37
M  ZZI   1 125
M  ZZM   2 37
M  ZZI   2 124
M  ZZM   3 3
M  ZZI   3 121
M  ZZM   4 7
M  ZZI   4 81
M  ZZM   5 10
M  ZZI   5 192
M  ZZM   6 3
M  ZZI   6 121
M  ZZM   7 7
M  ZZI   7 81
M  ZZM   8 37
M  ZZI   8 124
M  ZZM   9 37
M  ZZI   9 125
M  ZZM  10 37
M  ZZI  10 125
M  ZZM  11 37
M  ZZI  11 125
M  ZZM  12 1
M  ZZI  12 113
M  ZZM  13 3
M  ZZI  13 121
M  ZZM  14 7
M  ZZI  14 81
M  ZZM  15 10
M  ZZI  15 191
M  ZZM  16 3
M  ZZI  16 121
M  ZZM  17 7
M  ZZI  17 81
M  ZZM  18 1
M  ZZI  18 112
M  ZZM  19 1
M  ZZI  19 112
M  ZZM  20 5
M  ZZI  20 1
M  ZZM  21 5
M  ZZI  21 1
M  ZZM  22 5
M  ZZI  22 1
M  ZZM  23 5
M  ZZI  23 1
M  ZZM  24 5
M  ZZI  24 1
M  ZZM  25 28
M  ZZI  25 11
M  ZZM  26 5
M  ZZI  26 1
M  ZZM  27 5
M  ZZI  27 1
M  ZZM  28 5
M  ZZI  28 1
M  ZZM  29 5
M  ZZI  29 1
M  END
> <IX>
1

> <NAME>
Cereblon_5UIU_4.pdb

> <Score>
-20.525916

> <Natom>
29

> <Nflex>
1

> <Hbond>
-4.569374

> <Hphob>
-3.578983

> <VwInt>
-22.363758

> <Dsolv>
13.411253

> <SolEl>
7.264982

> <Eintl>
0.571582

> <RecConf>
ND

> <projPath>
Cereblon_maps/

> <NAME_>
Cereblon_5UIU_4.pdb

$$$$
