Cereblon_4QNQ_34.pdb
  MOLSOFT 04032206233D

 31 33  0  0  1  0  0  0  0  0999 V2000
   76.7307   41.9885   40.4775 N   0  0  0  0  0  0  0  0  0  0  0  0
   76.3207   40.6795   40.1810 C   0  0  0  0  0  0  0  0  0  0  0  0
   75.2224   40.4138   39.3822 C   0  0  0  0  0  0  0  0  0  0  0  0
   74.3437   41.3467   38.6876 C   0  0  0  0  0  0  0  0  0  0  0  0
   74.4019   42.5560   38.8525 O   0  0  0  0  0  0  0  0  0  0  0  0
   73.4810   40.5817   37.9250 N   0  0  0  0  0  0  0  0  0  0  0  0
   73.6909   39.2375   38.1618 C   0  0  0  0  0  0  0  0  0  0  0  0
   73.0990   38.2670   37.7121 O   0  0  0  0  0  0  0  0  0  0  0  0
   74.8102   39.1496   39.0979 C   0  0  0  0  0  0  0  0  0  0  0  0
   75.4250   38.0391   39.6450 C   0  0  0  0  0  0  0  0  0  0  0  0
   76.4926   38.2758   40.5027 C   0  0  0  0  0  0  0  0  0  0  0  0
   76.9256   39.5747   40.7722 C   0  0  0  0  0  0  0  0  0  0  0  0
   72.3972   41.0785   37.0651 C   0  0  1  0  0  0  0  0  0  0  0  0
   71.1524   41.3408   37.9067 C   0  0  0  0  0  0  0  0  0  0  0  0
   70.8921   40.7239   38.9293 O   0  0  0  0  0  0  0  0  0  0  0  0
   70.2674   42.2634   37.3996 N   0  0  0  0  0  0  0  0  0  0  0  0
   70.3858   43.0472   36.2833 C   0  0  0  0  0  0  0  0  0  0  0  0
   69.5652   43.9155   36.0316 O   0  0  0  0  0  0  0  0  0  0  0  0
   71.5714   42.7473   35.4021 C   0  0  0  0  0  0  0  0  0  0  0  0
   72.7626   42.3135   36.2409 C   0  0  0  0  0  0  0  0  0  0  0  0
   77.6684   42.1188   40.8518 H   0  0  0  0  0  0  0  0  0  0  0  0
   76.3431   42.7476   39.9170 H   0  0  0  0  0  0  0  0  0  0  0  0
   75.0888   37.0313   39.4195 H   0  0  0  0  0  0  0  0  0  0  0  0
   77.0003   37.4365   40.9682 H   0  0  0  0  0  0  0  0  0  0  0  0
   77.7598   39.7231   41.4506 H   0  0  0  0  0  0  0  0  0  0  0  0
   72.1265   40.2662   36.3804 H   0  0  0  0  0  0  0  0  0  0  0  0
   69.4400   42.4343   37.9522 H   0  0  0  0  0  0  0  0  0  0  0  0
   71.2853   41.9697   34.6857 H   0  0  0  0  0  0  0  0  0  0  0  0
   71.8191   43.6517   34.8414 H   0  0  0  0  0  0  0  0  0  0  0  0
   73.6196   42.0971   35.5952 H   0  0  0  0  0  0  0  0  0  0  0  0
   73.0558   43.1478   36.8853 H   0  0  0  0  0  0  0  0  0  0  0  0
  1  2  1  0  0  0  0
  1 21  1  0  0  0  0
  1 22  1  0  0  0  0
  2  3  1  0  0  0  0
  2 12  2  0  0  0  0
  3  9  2  0  0  0  0
  3  4  1  0  0  0  0
  4  5  2  0  0  0  0
  4  6  1  0  0  0  0
  6  7  1  0  0  0  0
 13  6  1  0  0  0  0
  7  8  2  0  0  0  0
  7  9  1  0  0  0  0
  9 10  1  0  0  0  0
 10 23  1  0  0  0  0
 10 11  2  0  0  0  0
 11 12  1  0  0  0  0
 11 24  1  0  0  0  0
 12 25  1  0  0  0  0
 13 26  1  0  0  0  0
 13 14  1  0  0  0  0
 13 20  1  0  0  0  0
 14 15  2  0  0  0  0
 14 16  1  0  0  0  0
 16 27  1  0  0  0  0
 16 17  1  0  0  0  0
 17 18  2  0  0  0  0
 17 19  1  0  0  0  0
 19 28  1  0  0  0  0
 19 29  1  0  0  0  0
 19 20  1  0  0  0  0
 20 30  1  0  0  0  0
 20 31  1  0  0  0  0
M  ZZC   1 n1
M  ZZC   2 c1
M  ZZC   3 c2
M  ZZC   4 c3
M  ZZC   5 o1
M  ZZC   6 n2
M  ZZC   7 c4
M  ZZC   8 o2
M  ZZC   9 c5
M  ZZC  10 c6
M  ZZC  11 c7
M  ZZC  12 c8
M  ZZC  13 c9
M  ZZC  14 c10
M  ZZC  15 o3
M  ZZC  16 n3
M  ZZC  17 c11
M  ZZC  18 o4
M  ZZC  19 c12
M  ZZC  20 c13
M  ZZC  21 h11
M  ZZC  22 h12
M  ZZC  23 h61
M  ZZC  24 h71
M  ZZC  25 h81
M  ZZC  26 h91
M  ZZC  27 h31
M  ZZC  28 h121
M  ZZC  29 h122
M  ZZC  30 h131
M  ZZC  31 h132
M  ZZM   1 40
M  ZZI   1 224
M  ZZM   2 37
M  ZZI   2 124
M  ZZM   3 37
M  ZZI   3 124
M  ZZM   4 3
M  ZZI   4 121
M  ZZM   5 7
M  ZZI   5 81
M  ZZM   6 10
M  ZZI   6 192
M  ZZM   7 3
M  ZZI   7 121
M  ZZM   8 7
M  ZZI   8 81
M  ZZM   9 37
M  ZZI   9 124
M  ZZM  10 37
M  ZZI  10 125
M  ZZM  11 37
M  ZZI  11 125
M  ZZM  12 37
M  ZZI  12 125
M  ZZM  13 1
M  ZZI  13 113
M  ZZM  14 3
M  ZZI  14 121
M  ZZM  15 7
M  ZZI  15 81
M  ZZM  16 10
M  ZZI  16 191
M  ZZM  17 3
M  ZZI  17 121
M  ZZM  18 7
M  ZZI  18 81
M  ZZM  19 1
M  ZZI  19 112
M  ZZM  20 1
M  ZZI  20 112
M  ZZM  21 28
M  ZZI  21 11
M  ZZM  22 28
M  ZZI  22 11
M  ZZM  23 5
M  ZZI  23 1
M  ZZM  24 5
M  ZZI  24 1
M  ZZM  25 5
M  ZZI  25 1
M  ZZM  26 5
M  ZZI  26 1
M  ZZM  27 28
M  ZZI  27 11
M  ZZM  28 5
M  ZZI  28 1
M  ZZM  29 5
M  ZZI  29 1
M  ZZM  30 5
M  ZZI  30 1
M  ZZM  31 5
M  ZZI  31 1
M  END
> <IX>
1

> <NAME>
Cereblon_4QNQ_34.pdb

> <Score>
-19.323807

> <Natom>
31

> <Nflex>
1

> <Hbond>
-4.818822

> <Hphob>
-3.560099

> <VwInt>
-25.320986

> <Dsolv>
16.033116

> <SolEl>
10.791929

> <Eintl>
1.37759

> <RecConf>
ND

> <projPath>
Cereblon_maps/

> <NAME_>
Cereblon_4QNQ_34.pdb

$$$$
