Cereblon_5TOB_13.pdb
  MOLSOFT 04032206263D

 31 33  0  0  1  0  0  0  0  0999 V2000
   78.8134   41.6780   43.8188 N   0  0  0  0  0  0  0  0  0  0  0  0
   78.9073   42.4224   42.6323 C   0  0  0  0  0  0  0  0  0  0  0  0
   78.1002   42.1581   41.5386 C   0  0  0  0  0  0  0  0  0  0  0  0
   77.1795   41.0474   41.3313 C   0  0  0  0  0  0  0  0  0  0  0  0
   76.9987   40.1644   42.1567 O   0  0  0  0  0  0  0  0  0  0  0  0
   76.6454   41.2114   40.0686 N   0  0  0  0  0  0  0  0  0  0  0  0
   77.1666   42.3322   39.4548 C   0  0  0  0  0  0  0  0  0  0  0  0
   76.9539   42.7547   38.3257 O   0  0  0  0  0  0  0  0  0  0  0  0
   78.0978   42.9275   40.4147 C   0  0  0  0  0  0  0  0  0  0  0  0
   78.9096   44.0367   40.2940 C   0  0  0  0  0  0  0  0  0  0  0  0
   79.7251   44.3367   41.3790 C   0  0  0  0  0  0  0  0  0  0  0  0
   79.7119   43.5537   42.5349 C   0  0  0  0  0  0  0  0  0  0  0  0
   75.6256   40.3753   39.4316 C   0  0  2  0  0  0  0  0  0  0  0  0
   74.2544   40.9537   39.7369 C   0  0  0  0  0  0  0  0  0  0  0  0
   74.0841   42.1340   39.9932 O   0  0  0  0  0  0  0  0  0  0  0  0
   73.1937   40.0884   39.6236 N   0  0  0  0  0  0  0  0  0  0  0  0
   73.2181   38.7512   39.3092 C   0  0  0  0  0  0  0  0  0  0  0  0
   72.1929   38.0992   39.1980 O   0  0  0  0  0  0  0  0  0  0  0  0
   74.5811   38.1513   39.0576 C   0  0  0  0  0  0  0  0  0  0  0  0
   75.6587   38.9009   39.8210 C   0  0  0  0  0  0  0  0  0  0  0  0
   79.5537   41.7612   44.5120 H   0  0  0  0  0  0  0  0  0  0  0  0
   78.3235   40.7830   43.7762 H   0  0  0  0  0  0  0  0  0  0  0  0
   78.9025   44.6446   39.3970 H   0  0  0  0  0  0  0  0  0  0  0  0
   80.3733   45.2049   41.3348 H   0  0  0  0  0  0  0  0  0  0  0  0
   80.3433   43.8358   43.3720 H   0  0  0  0  0  0  0  0  0  0  0  0
   75.7601   40.4751   38.3533 H   0  0  0  0  0  0  0  0  0  0  0  0
   72.2784   40.4907   39.7835 H   0  0  0  0  0  0  0  0  0  0  0  0
   74.5657   37.1035   39.3743 H   0  0  0  0  0  0  0  0  0  0  0  0
   74.7697   38.1771   37.9798 H   0  0  0  0  0  0  0  0  0  0  0  0
   75.4739   38.7731   40.8916 H   0  0  0  0  0  0  0  0  0  0  0  0
   76.6432   38.4693   39.6140 H   0  0  0  0  0  0  0  0  0  0  0  0
  1  2  1  0  0  0  0
  1 21  1  0  0  0  0
  1 22  1  0  0  0  0
  2  3  1  0  0  0  0
  2 12  2  0  0  0  0
  3  9  2  0  0  0  0
  3  4  1  0  0  0  0
  4  5  2  0  0  0  0
  4  6  1  0  0  0  0
  6  7  1  0  0  0  0
 13  6  1  0  0  0  0
  7  8  2  0  0  0  0
  7  9  1  0  0  0  0
  9 10  1  0  0  0  0
 10 23  1  0  0  0  0
 10 11  2  0  0  0  0
 11 12  1  0  0  0  0
 11 24  1  0  0  0  0
 12 25  1  0  0  0  0
 13 26  1  0  0  0  0
 13 14  1  0  0  0  0
 13 20  1  0  0  0  0
 14 15  2  0  0  0  0
 14 16  1  0  0  0  0
 16 27  1  0  0  0  0
 16 17  1  0  0  0  0
 17 18  2  0  0  0  0
 17 19  1  0  0  0  0
 19 28  1  0  0  0  0
 19 29  1  0  0  0  0
 19 20  1  0  0  0  0
 20 30  1  0  0  0  0
 20 31  1  0  0  0  0
M  ZZC   1 n1
M  ZZC   2 c1
M  ZZC   3 c2
M  ZZC   4 c3
M  ZZC   5 o1
M  ZZC   6 n2
M  ZZC   7 c4
M  ZZC   8 o2
M  ZZC   9 c5
M  ZZC  10 c6
M  ZZC  11 c7
M  ZZC  12 c8
M  ZZC  13 c9
M  ZZC  14 c10
M  ZZC  15 o3
M  ZZC  16 n3
M  ZZC  17 c11
M  ZZC  18 o4
M  ZZC  19 c12
M  ZZC  20 c13
M  ZZC  21 h11
M  ZZC  22 h12
M  ZZC  23 h61
M  ZZC  24 h71
M  ZZC  25 h81
M  ZZC  26 h91
M  ZZC  27 h31
M  ZZC  28 h121
M  ZZC  29 h122
M  ZZC  30 h131
M  ZZC  31 h132
M  ZZM   1 40
M  ZZI   1 224
M  ZZM   2 37
M  ZZI   2 124
M  ZZM   3 37
M  ZZI   3 124
M  ZZM   4 3
M  ZZI   4 121
M  ZZM   5 7
M  ZZI   5 81
M  ZZM   6 10
M  ZZI   6 192
M  ZZM   7 3
M  ZZI   7 121
M  ZZM   8 7
M  ZZI   8 81
M  ZZM   9 37
M  ZZI   9 124
M  ZZM  10 37
M  ZZI  10 125
M  ZZM  11 37
M  ZZI  11 125
M  ZZM  12 37
M  ZZI  12 125
M  ZZM  13 1
M  ZZI  13 113
M  ZZM  14 3
M  ZZI  14 121
M  ZZM  15 7
M  ZZI  15 81
M  ZZM  16 10
M  ZZI  16 191
M  ZZM  17 3
M  ZZI  17 121
M  ZZM  18 7
M  ZZI  18 81
M  ZZM  19 1
M  ZZI  19 112
M  ZZM  20 1
M  ZZI  20 112
M  ZZM  21 28
M  ZZI  21 11
M  ZZM  22 28
M  ZZI  22 11
M  ZZM  23 5
M  ZZI  23 1
M  ZZM  24 5
M  ZZI  24 1
M  ZZM  25 5
M  ZZI  25 1
M  ZZM  26 5
M  ZZI  26 1
M  ZZM  27 28
M  ZZI  27 11
M  ZZM  28 5
M  ZZI  28 1
M  ZZM  29 5
M  ZZI  29 1
M  ZZM  30 5
M  ZZI  30 1
M  ZZM  31 5
M  ZZI  31 1
M  END
> <IX>
1

> <NAME>
Cereblon_5TOB_13.pdb

> <Score>
-18.544944

> <Natom>
31

> <Nflex>
1

> <Hbond>
-3.70774

> <Hphob>
-3.589588

> <VwInt>
-24.172033

> <Dsolv>
15.011588

> <SolEl>
6.875349

> <Eintl>
1.693789

> <RecConf>
ND

> <projPath>
Cereblon_maps/

> <NAME_>
Cereblon_5TOB_13.pdb

$$$$
