Cereblon_3LQ5_14.pdb
  MOLSOFT 04032206223D

 31 33  0  0  1  0  0  0  0  0999 V2000
   77.6207   41.8893   41.9176 N   0  0  0  0  0  0  0  0  0  0  0  0
   77.2704   40.5829   41.5437 C   0  0  0  0  0  0  0  0  0  0  0  0
   76.3435   40.2977   40.5481 C   0  0  0  0  0  0  0  0  0  0  0  0
   75.4429   41.1755   39.7931 C   0  0  0  0  0  0  0  0  0  0  0  0
   75.2867   42.3657   40.0169 O   0  0  0  0  0  0  0  0  0  0  0  0
   74.7995   40.3823   38.8684 N   0  0  0  0  0  0  0  0  0  0  0  0
   75.0970   39.0552   39.0783 C   0  0  0  0  0  0  0  0  0  0  0  0
   74.6143   38.0608   38.5561 O   0  0  0  0  0  0  0  0  0  0  0  0
   76.1134   39.0210   40.1263 C   0  0  0  0  0  0  0  0  0  0  0  0
   76.7696   37.9291   40.6603 C   0  0  0  0  0  0  0  0  0  0  0  0
   77.6921   38.1869   41.6637 C   0  0  0  0  0  0  0  0  0  0  0  0
   77.9375   39.4907   42.0903 C   0  0  0  0  0  0  0  0  0  0  0  0
   73.7531   40.8311   37.9461 C   0  0  2  0  0  0  0  0  0  0  0  0
   74.1757   42.0679   37.1569 C   0  0  0  0  0  0  0  0  0  0  0  0
   75.3424   42.3493   36.9216 O   0  0  0  0  0  0  0  0  0  0  0  0
   73.1450   42.8236   36.6464 N   0  0  0  0  0  0  0  0  0  0  0  0
   71.7905   42.6478   36.8027 C   0  0  0  0  0  0  0  0  0  0  0  0
   70.9790   43.3950   36.2777 O   0  0  0  0  0  0  0  0  0  0  0  0
   71.3682   41.4493   37.6193 C   0  0  0  0  0  0  0  0  0  0  0  0
   72.4224   41.0651   38.6472 C   0  0  0  0  0  0  0  0  0  0  0  0
   78.1743   42.0395   42.7586 H   0  0  0  0  0  0  0  0  0  0  0  0
   77.1107   42.6831   41.5277 H   0  0  0  0  0  0  0  0  0  0  0  0
   76.5737   36.9185   40.3143 H   0  0  0  0  0  0  0  0  0  0  0  0
   78.2366   37.3645   42.1176 H   0  0  0  0  0  0  0  0  0  0  0  0
   78.6767   39.6544   42.8680 H   0  0  0  0  0  0  0  0  0  0  0  0
   73.6131   40.0326   37.2081 H   0  0  0  0  0  0  0  0  0  0  0  0
   73.4154   43.6311   36.1021 H   0  0  0  0  0  0  0  0  0  0  0  0
   70.4294   41.6901   38.1264 H   0  0  0  0  0  0  0  0  0  0  0  0
   71.1760   40.6202   36.9304 H   0  0  0  0  0  0  0  0  0  0  0  0
   72.5219   41.8477   39.4061 H   0  0  0  0  0  0  0  0  0  0  0  0
   72.1058   40.1616   39.1785 H   0  0  0  0  0  0  0  0  0  0  0  0
  1  2  1  0  0  0  0
  1 21  1  0  0  0  0
  1 22  1  0  0  0  0
  2  3  1  0  0  0  0
  2 12  2  0  0  0  0
  3  9  2  0  0  0  0
  3  4  1  0  0  0  0
  4  5  2  0  0  0  0
  4  6  1  0  0  0  0
  6  7  1  0  0  0  0
 13  6  1  0  0  0  0
  7  8  2  0  0  0  0
  7  9  1  0  0  0  0
  9 10  1  0  0  0  0
 10 23  1  0  0  0  0
 10 11  2  0  0  0  0
 11 12  1  0  0  0  0
 11 24  1  0  0  0  0
 12 25  1  0  0  0  0
 13 26  1  0  0  0  0
 13 14  1  0  0  0  0
 13 20  1  0  0  0  0
 14 15  2  0  0  0  0
 14 16  1  0  0  0  0
 16 27  1  0  0  0  0
 16 17  1  0  0  0  0
 17 18  2  0  0  0  0
 17 19  1  0  0  0  0
 19 28  1  0  0  0  0
 19 29  1  0  0  0  0
 19 20  1  0  0  0  0
 20 30  1  0  0  0  0
 20 31  1  0  0  0  0
M  ZZC   1 n1
M  ZZC   2 c1
M  ZZC   3 c2
M  ZZC   4 c3
M  ZZC   5 o1
M  ZZC   6 n2
M  ZZC   7 c4
M  ZZC   8 o2
M  ZZC   9 c5
M  ZZC  10 c6
M  ZZC  11 c7
M  ZZC  12 c8
M  ZZC  13 c9
M  ZZC  14 c10
M  ZZC  15 o3
M  ZZC  16 n3
M  ZZC  17 c11
M  ZZC  18 o4
M  ZZC  19 c12
M  ZZC  20 c13
M  ZZC  21 h11
M  ZZC  22 h12
M  ZZC  23 h61
M  ZZC  24 h71
M  ZZC  25 h81
M  ZZC  26 h91
M  ZZC  27 h31
M  ZZC  28 h121
M  ZZC  29 h122
M  ZZC  30 h131
M  ZZC  31 h132
M  ZZM   1 40
M  ZZI   1 224
M  ZZM   2 37
M  ZZI   2 124
M  ZZM   3 37
M  ZZI   3 124
M  ZZM   4 3
M  ZZI   4 121
M  ZZM   5 7
M  ZZI   5 81
M  ZZM   6 10
M  ZZI   6 192
M  ZZM   7 3
M  ZZI   7 121
M  ZZM   8 7
M  ZZI   8 81
M  ZZM   9 37
M  ZZI   9 124
M  ZZM  10 37
M  ZZI  10 125
M  ZZM  11 37
M  ZZI  11 125
M  ZZM  12 37
M  ZZI  12 125
M  ZZM  13 1
M  ZZI  13 113
M  ZZM  14 3
M  ZZI  14 121
M  ZZM  15 7
M  ZZI  15 81
M  ZZM  16 10
M  ZZI  16 191
M  ZZM  17 3
M  ZZI  17 121
M  ZZM  18 7
M  ZZI  18 81
M  ZZM  19 1
M  ZZI  19 112
M  ZZM  20 1
M  ZZI  20 112
M  ZZM  21 28
M  ZZI  21 11
M  ZZM  22 28
M  ZZI  22 11
M  ZZM  23 5
M  ZZI  23 1
M  ZZM  24 5
M  ZZI  24 1
M  ZZM  25 5
M  ZZI  25 1
M  ZZM  26 5
M  ZZI  26 1
M  ZZM  27 28
M  ZZI  27 11
M  ZZM  28 5
M  ZZI  28 1
M  ZZM  29 5
M  ZZI  29 1
M  ZZM  30 5
M  ZZI  30 1
M  ZZM  31 5
M  ZZI  31 1
M  END
> <IX>
1

> <NAME>
Cereblon_3LQ5_14.pdb

> <Score>
-15.24968

> <Natom>
31

> <Nflex>
1

> <Hbond>
-4.145423

> <Hphob>
-3.544947

> <VwInt>
-23.265624

> <Dsolv>
17.355826

> <SolEl>
8.071218

> <Eintl>
3.225175

> <RecConf>
ND

> <projPath>
Cereblon_maps/

> <NAME_>
Cereblon_3LQ5_14.pdb

$$$$
