Cereblon_4QNQ_45.pdb
  MOLSOFT 04032206243D

 31 33  0  0  1  0  0  0  0  0999 V2000
   76.7314   41.9949   40.4772 N   0  0  0  0  0  0  0  0  0  0  0  0
   76.3227   40.6852   40.1822 C   0  0  0  0  0  0  0  0  0  0  0  0
   75.2249   40.4177   39.3833 C   0  0  0  0  0  0  0  0  0  0  0  0
   74.3455   41.3491   38.6875 C   0  0  0  0  0  0  0  0  0  0  0  0
   74.4030   42.5587   38.8512 O   0  0  0  0  0  0  0  0  0  0  0  0
   73.4829   40.5828   37.9263 N   0  0  0  0  0  0  0  0  0  0  0  0
   73.6938   39.2390   38.1648 C   0  0  0  0  0  0  0  0  0  0  0  0
   73.1027   38.2676   37.7160 O   0  0  0  0  0  0  0  0  0  0  0  0
   74.8131   39.1530   39.1010 C   0  0  0  0  0  0  0  0  0  0  0  0
   75.4291   38.0435   39.6487 C   0  0  0  0  0  0  0  0  0  0  0  0
   76.4966   38.2821   40.5059 C   0  0  0  0  0  0  0  0  0  0  0  0
   76.9285   39.5816   40.7746 C   0  0  0  0  0  0  0  0  0  0  0  0
   72.3987   41.0781   37.0660 C   0  0  1  0  0  0  0  0  0  0  0  0
   71.1532   41.3407   37.9064 C   0  0  0  0  0  0  0  0  0  0  0  0
   70.8930   40.7242   38.9292 O   0  0  0  0  0  0  0  0  0  0  0  0
   70.2681   42.2632   37.3988 N   0  0  0  0  0  0  0  0  0  0  0  0
   70.3867   43.0460   36.2819 C   0  0  0  0  0  0  0  0  0  0  0  0
   69.5667   43.9147   36.0293 O   0  0  0  0  0  0  0  0  0  0  0  0
   71.5720   42.7442   35.4010 C   0  0  0  0  0  0  0  0  0  0  0  0
   72.7635   42.3123   36.2402 C   0  0  0  0  0  0  0  0  0  0  0  0
   77.6681   42.1267   40.8536 H   0  0  0  0  0  0  0  0  0  0  0  0
   76.3439   42.7534   39.9158 H   0  0  0  0  0  0  0  0  0  0  0  0
   75.0949   37.0351   39.4233 H   0  0  0  0  0  0  0  0  0  0  0  0
   77.0063   37.4438   40.9711 H   0  0  0  0  0  0  0  0  0  0  0  0
   77.7627   39.7312   41.4527 H   0  0  0  0  0  0  0  0  0  0  0  0
   72.1289   40.2649   36.3821 H   0  0  0  0  0  0  0  0  0  0  0  0
   69.4406   42.4340   37.9512 H   0  0  0  0  0  0  0  0  0  0  0  0
   71.2858   41.9653   34.6862 H   0  0  0  0  0  0  0  0  0  0  0  0
   71.8194   43.6471   34.8378 H   0  0  0  0  0  0  0  0  0  0  0  0
   73.6206   42.0955   35.5946 H   0  0  0  0  0  0  0  0  0  0  0  0
   73.0564   43.1475   36.8838 H   0  0  0  0  0  0  0  0  0  0  0  0
  1  2  1  0  0  0  0
  1 21  1  0  0  0  0
  1 22  1  0  0  0  0
  2  3  1  0  0  0  0
  2 12  2  0  0  0  0
  3  9  2  0  0  0  0
  3  4  1  0  0  0  0
  4  5  2  0  0  0  0
  4  6  1  0  0  0  0
  6  7  1  0  0  0  0
 13  6  1  0  0  0  0
  7  8  2  0  0  0  0
  7  9  1  0  0  0  0
  9 10  1  0  0  0  0
 10 23  1  0  0  0  0
 10 11  2  0  0  0  0
 11 12  1  0  0  0  0
 11 24  1  0  0  0  0
 12 25  1  0  0  0  0
 13 26  1  0  0  0  0
 13 14  1  0  0  0  0
 13 20  1  0  0  0  0
 14 15  2  0  0  0  0
 14 16  1  0  0  0  0
 16 27  1  0  0  0  0
 16 17  1  0  0  0  0
 17 18  2  0  0  0  0
 17 19  1  0  0  0  0
 19 28  1  0  0  0  0
 19 29  1  0  0  0  0
 19 20  1  0  0  0  0
 20 30  1  0  0  0  0
 20 31  1  0  0  0  0
M  ZZC   1 n1
M  ZZC   2 c1
M  ZZC   3 c2
M  ZZC   4 c3
M  ZZC   5 o1
M  ZZC   6 n2
M  ZZC   7 c4
M  ZZC   8 o2
M  ZZC   9 c5
M  ZZC  10 c6
M  ZZC  11 c7
M  ZZC  12 c8
M  ZZC  13 c9
M  ZZC  14 c10
M  ZZC  15 o3
M  ZZC  16 n3
M  ZZC  17 c11
M  ZZC  18 o4
M  ZZC  19 c12
M  ZZC  20 c13
M  ZZC  21 h11
M  ZZC  22 h12
M  ZZC  23 h61
M  ZZC  24 h71
M  ZZC  25 h81
M  ZZC  26 h91
M  ZZC  27 h31
M  ZZC  28 h121
M  ZZC  29 h122
M  ZZC  30 h131
M  ZZC  31 h132
M  ZZM   1 40
M  ZZI   1 224
M  ZZM   2 37
M  ZZI   2 124
M  ZZM   3 37
M  ZZI   3 124
M  ZZM   4 3
M  ZZI   4 121
M  ZZM   5 7
M  ZZI   5 81
M  ZZM   6 10
M  ZZI   6 192
M  ZZM   7 3
M  ZZI   7 121
M  ZZM   8 7
M  ZZI   8 81
M  ZZM   9 37
M  ZZI   9 124
M  ZZM  10 37
M  ZZI  10 125
M  ZZM  11 37
M  ZZI  11 125
M  ZZM  12 37
M  ZZI  12 125
M  ZZM  13 1
M  ZZI  13 113
M  ZZM  14 3
M  ZZI  14 121
M  ZZM  15 7
M  ZZI  15 81
M  ZZM  16 10
M  ZZI  16 191
M  ZZM  17 3
M  ZZI  17 121
M  ZZM  18 7
M  ZZI  18 81
M  ZZM  19 1
M  ZZI  19 112
M  ZZM  20 1
M  ZZI  20 112
M  ZZM  21 28
M  ZZI  21 11
M  ZZM  22 28
M  ZZI  22 11
M  ZZM  23 5
M  ZZI  23 1
M  ZZM  24 5
M  ZZI  24 1
M  ZZM  25 5
M  ZZI  25 1
M  ZZM  26 5
M  ZZI  26 1
M  ZZM  27 28
M  ZZI  27 11
M  ZZM  28 5
M  ZZI  28 1
M  ZZM  29 5
M  ZZI  29 1
M  ZZM  30 5
M  ZZI  30 1
M  ZZM  31 5
M  ZZI  31 1
M  END
> <IX>
1

> <NAME>
Cereblon_4QNQ_45.pdb

> <Score>
-19.30562

> <Natom>
31

> <Nflex>
1

> <Hbond>
-4.843917

> <Hphob>
-3.568621

> <VwInt>
-25.15278

> <Dsolv>
15.975681

> <SolEl>
10.73301

> <Eintl>
1.379497

> <RecConf>
ND

> <projPath>
Cereblon_maps/

> <NAME_>
Cereblon_4QNQ_45.pdb

$$$$
