Cereblon_4XUF_8.pdb
  MOLSOFT 04032206243D

 31 33  0  0  1  0  0  0  0  0999 V2000
   78.8135   41.6782   43.8189 N   0  0  0  0  0  0  0  0  0  0  0  0
   78.9071   42.4226   42.6324 C   0  0  0  0  0  0  0  0  0  0  0  0
   78.1009   42.1574   41.5384 C   0  0  0  0  0  0  0  0  0  0  0  0
   77.1800   41.0468   41.3312 C   0  0  0  0  0  0  0  0  0  0  0  0
   76.9991   40.1642   42.1569 O   0  0  0  0  0  0  0  0  0  0  0  0
   76.6454   41.2112   40.0687 N   0  0  0  0  0  0  0  0  0  0  0  0
   77.1665   42.3320   39.4549 C   0  0  0  0  0  0  0  0  0  0  0  0
   76.9535   42.7547   38.3260 O   0  0  0  0  0  0  0  0  0  0  0  0
   78.0979   42.9272   40.4146 C   0  0  0  0  0  0  0  0  0  0  0  0
   78.9087   44.0370   40.2941 C   0  0  0  0  0  0  0  0  0  0  0  0
   79.7246   44.3370   41.3789 C   0  0  0  0  0  0  0  0  0  0  0  0
   79.7117   43.5539   42.5348 C   0  0  0  0  0  0  0  0  0  0  0  0
   75.6257   40.3749   39.4317 C   0  0  2  0  0  0  0  0  0  0  0  0
   74.2543   40.9536   39.7361 C   0  0  0  0  0  0  0  0  0  0  0  0
   74.0842   42.1339   39.9926 O   0  0  0  0  0  0  0  0  0  0  0  0
   73.1934   40.0884   39.6231 N   0  0  0  0  0  0  0  0  0  0  0  0
   73.2180   38.7506   39.3113 C   0  0  0  0  0  0  0  0  0  0  0  0
   72.1930   38.0976   39.2034 O   0  0  0  0  0  0  0  0  0  0  0  0
   74.5809   38.1517   39.0576 C   0  0  0  0  0  0  0  0  0  0  0  0
   75.6588   38.9006   39.8213 C   0  0  0  0  0  0  0  0  0  0  0  0
   79.5540   41.7618   44.5118 H   0  0  0  0  0  0  0  0  0  0  0  0
   78.3240   40.7831   43.7756 H   0  0  0  0  0  0  0  0  0  0  0  0
   78.9009   44.6453   39.3974 H   0  0  0  0  0  0  0  0  0  0  0  0
   80.3723   45.2056   41.3343 H   0  0  0  0  0  0  0  0  0  0  0  0
   80.3431   43.8364   43.3718 H   0  0  0  0  0  0  0  0  0  0  0  0
   75.7605   40.4747   38.3534 H   0  0  0  0  0  0  0  0  0  0  0  0
   72.2783   40.4906   39.7840 H   0  0  0  0  0  0  0  0  0  0  0  0
   74.5655   37.1042   39.3744 H   0  0  0  0  0  0  0  0  0  0  0  0
   74.7683   38.1770   37.9797 H   0  0  0  0  0  0  0  0  0  0  0  0
   75.4735   38.7733   40.8918 H   0  0  0  0  0  0  0  0  0  0  0  0
   76.6435   38.4694   39.6141 H   0  0  0  0  0  0  0  0  0  0  0  0
  1  2  1  0  0  0  0
  1 21  1  0  0  0  0
  1 22  1  0  0  0  0
  2  3  1  0  0  0  0
  2 12  2  0  0  0  0
  3  9  2  0  0  0  0
  3  4  1  0  0  0  0
  4  5  2  0  0  0  0
  4  6  1  0  0  0  0
  6  7  1  0  0  0  0
 13  6  1  0  0  0  0
  7  8  2  0  0  0  0
  7  9  1  0  0  0  0
  9 10  1  0  0  0  0
 10 23  1  0  0  0  0
 10 11  2  0  0  0  0
 11 12  1  0  0  0  0
 11 24  1  0  0  0  0
 12 25  1  0  0  0  0
 13 26  1  0  0  0  0
 13 14  1  0  0  0  0
 13 20  1  0  0  0  0
 14 15  2  0  0  0  0
 14 16  1  0  0  0  0
 16 27  1  0  0  0  0
 16 17  1  0  0  0  0
 17 18  2  0  0  0  0
 17 19  1  0  0  0  0
 19 28  1  0  0  0  0
 19 29  1  0  0  0  0
 19 20  1  0  0  0  0
 20 30  1  0  0  0  0
 20 31  1  0  0  0  0
M  ZZC   1 n1
M  ZZC   2 c1
M  ZZC   3 c2
M  ZZC   4 c3
M  ZZC   5 o1
M  ZZC   6 n2
M  ZZC   7 c4
M  ZZC   8 o2
M  ZZC   9 c5
M  ZZC  10 c6
M  ZZC  11 c7
M  ZZC  12 c8
M  ZZC  13 c9
M  ZZC  14 c10
M  ZZC  15 o3
M  ZZC  16 n3
M  ZZC  17 c11
M  ZZC  18 o4
M  ZZC  19 c12
M  ZZC  20 c13
M  ZZC  21 h11
M  ZZC  22 h12
M  ZZC  23 h61
M  ZZC  24 h71
M  ZZC  25 h81
M  ZZC  26 h91
M  ZZC  27 h31
M  ZZC  28 h121
M  ZZC  29 h122
M  ZZC  30 h131
M  ZZC  31 h132
M  ZZM   1 40
M  ZZI   1 224
M  ZZM   2 37
M  ZZI   2 124
M  ZZM   3 37
M  ZZI   3 124
M  ZZM   4 3
M  ZZI   4 121
M  ZZM   5 7
M  ZZI   5 81
M  ZZM   6 10
M  ZZI   6 192
M  ZZM   7 3
M  ZZI   7 121
M  ZZM   8 7
M  ZZI   8 81
M  ZZM   9 37
M  ZZI   9 124
M  ZZM  10 37
M  ZZI  10 125
M  ZZM  11 37
M  ZZI  11 125
M  ZZM  12 37
M  ZZI  12 125
M  ZZM  13 1
M  ZZI  13 113
M  ZZM  14 3
M  ZZI  14 121
M  ZZM  15 7
M  ZZI  15 81
M  ZZM  16 10
M  ZZI  16 191
M  ZZM  17 3
M  ZZI  17 121
M  ZZM  18 7
M  ZZI  18 81
M  ZZM  19 1
M  ZZI  19 112
M  ZZM  20 1
M  ZZI  20 112
M  ZZM  21 28
M  ZZI  21 11
M  ZZM  22 28
M  ZZI  22 11
M  ZZM  23 5
M  ZZI  23 1
M  ZZM  24 5
M  ZZI  24 1
M  ZZM  25 5
M  ZZI  25 1
M  ZZM  26 5
M  ZZI  26 1
M  ZZM  27 28
M  ZZI  27 11
M  ZZM  28 5
M  ZZI  28 1
M  ZZM  29 5
M  ZZI  29 1
M  ZZM  30 5
M  ZZI  30 1
M  ZZM  31 5
M  ZZI  31 1
M  END
> <IX>
1

> <NAME>
Cereblon_4XUF_8.pdb

> <Score>
-18.674658

> <Natom>
31

> <Nflex>
1

> <Hbond>
-3.68097

> <Hphob>
-3.540199

> <VwInt>
-24.307578

> <Dsolv>
15.212009

> <SolEl>
6.504159

> <Eintl>
1.693259

> <RecConf>
ND

> <projPath>
Cereblon_maps/

> <NAME_>
Cereblon_4XUF_8.pdb

$$$$
