Cereblon_5J8O_28.pdb
  MOLSOFT 04032206253D

 31 33  0  0  1  0  0  0  0  0999 V2000
   78.8165   41.6890   43.8142 N   0  0  0  0  0  0  0  0  0  0  0  0
   78.9029   42.4363   42.6294 C   0  0  0  0  0  0  0  0  0  0  0  0
   78.0996   42.1650   41.5346 C   0  0  0  0  0  0  0  0  0  0  0  0
   77.1788   41.0538   41.3306 C   0  0  0  0  0  0  0  0  0  0  0  0
   76.9921   40.1766   42.1607 O   0  0  0  0  0  0  0  0  0  0  0  0
   76.6492   41.2116   40.0651 N   0  0  0  0  0  0  0  0  0  0  0  0
   77.1683   42.3324   39.4494 C   0  0  0  0  0  0  0  0  0  0  0  0
   76.9529   42.7541   38.3206 O   0  0  0  0  0  0  0  0  0  0  0  0
   78.0983   42.9310   40.4083 C   0  0  0  0  0  0  0  0  0  0  0  0
   78.9094   44.0403   40.2847 C   0  0  0  0  0  0  0  0  0  0  0  0
   79.7258   44.3428   41.3683 C   0  0  0  0  0  0  0  0  0  0  0  0
   79.7120   43.5639   42.5270 C   0  0  0  0  0  0  0  0  0  0  0  0
   75.6283   40.3745   39.4311 C   0  0  2  0  0  0  0  0  0  0  0  0
   74.2567   40.9502   39.7401 C   0  0  0  0  0  0  0  0  0  0  0  0
   74.0849   42.1306   39.9952 O   0  0  0  0  0  0  0  0  0  0  0  0
   73.1975   40.0822   39.6327 N   0  0  0  0  0  0  0  0  0  0  0  0
   73.2236   38.7444   39.3205 C   0  0  0  0  0  0  0  0  0  0  0  0
   72.1999   38.0887   39.2181 O   0  0  0  0  0  0  0  0  0  0  0  0
   74.5869   38.1495   39.0595 C   0  0  0  0  0  0  0  0  0  0  0  0
   75.6655   38.8999   39.8206 C   0  0  0  0  0  0  0  0  0  0  0  0
   79.5290   41.8003   44.5325 H   0  0  0  0  0  0  0  0  0  0  0  0
   78.3067   40.8043   43.7894 H   0  0  0  0  0  0  0  0  0  0  0  0
   78.9023   44.6466   39.3866 H   0  0  0  0  0  0  0  0  0  0  0  0
   80.3757   45.2095   41.3204 H   0  0  0  0  0  0  0  0  0  0  0  0
   80.3468   43.8455   43.3617 H   0  0  0  0  0  0  0  0  0  0  0  0
   75.7603   40.4746   38.3525 H   0  0  0  0  0  0  0  0  0  0  0  0
   72.2821   40.4820   39.7988 H   0  0  0  0  0  0  0  0  0  0  0  0
   74.5762   37.1010   39.3737 H   0  0  0  0  0  0  0  0  0  0  0  0
   74.7700   38.1786   37.9809 H   0  0  0  0  0  0  0  0  0  0  0  0
   75.4841   38.7728   40.8918 H   0  0  0  0  0  0  0  0  0  0  0  0
   76.6502   38.4703   39.6099 H   0  0  0  0  0  0  0  0  0  0  0  0
  1  2  1  0  0  0  0
  1 21  1  0  0  0  0
  1 22  1  0  0  0  0
  2  3  1  0  0  0  0
  2 12  2  0  0  0  0
  3  9  2  0  0  0  0
  3  4  1  0  0  0  0
  4  5  2  0  0  0  0
  4  6  1  0  0  0  0
  6  7  1  0  0  0  0
 13  6  1  0  0  0  0
  7  8  2  0  0  0  0
  7  9  1  0  0  0  0
  9 10  1  0  0  0  0
 10 23  1  0  0  0  0
 10 11  2  0  0  0  0
 11 12  1  0  0  0  0
 11 24  1  0  0  0  0
 12 25  1  0  0  0  0
 13 26  1  0  0  0  0
 13 14  1  0  0  0  0
 13 20  1  0  0  0  0
 14 15  2  0  0  0  0
 14 16  1  0  0  0  0
 16 27  1  0  0  0  0
 16 17  1  0  0  0  0
 17 18  2  0  0  0  0
 17 19  1  0  0  0  0
 19 28  1  0  0  0  0
 19 29  1  0  0  0  0
 19 20  1  0  0  0  0
 20 30  1  0  0  0  0
 20 31  1  0  0  0  0
M  ZZC   1 n1
M  ZZC   2 c1
M  ZZC   3 c2
M  ZZC   4 c3
M  ZZC   5 o1
M  ZZC   6 n2
M  ZZC   7 c4
M  ZZC   8 o2
M  ZZC   9 c5
M  ZZC  10 c6
M  ZZC  11 c7
M  ZZC  12 c8
M  ZZC  13 c9
M  ZZC  14 c10
M  ZZC  15 o3
M  ZZC  16 n3
M  ZZC  17 c11
M  ZZC  18 o4
M  ZZC  19 c12
M  ZZC  20 c13
M  ZZC  21 h11
M  ZZC  22 h12
M  ZZC  23 h61
M  ZZC  24 h71
M  ZZC  25 h81
M  ZZC  26 h91
M  ZZC  27 h31
M  ZZC  28 h121
M  ZZC  29 h122
M  ZZC  30 h131
M  ZZC  31 h132
M  ZZM   1 40
M  ZZI   1 224
M  ZZM   2 37
M  ZZI   2 124
M  ZZM   3 37
M  ZZI   3 124
M  ZZM   4 3
M  ZZI   4 121
M  ZZM   5 7
M  ZZI   5 81
M  ZZM   6 10
M  ZZI   6 192
M  ZZM   7 3
M  ZZI   7 121
M  ZZM   8 7
M  ZZI   8 81
M  ZZM   9 37
M  ZZI   9 124
M  ZZM  10 37
M  ZZI  10 125
M  ZZM  11 37
M  ZZI  11 125
M  ZZM  12 37
M  ZZI  12 125
M  ZZM  13 1
M  ZZI  13 113
M  ZZM  14 3
M  ZZI  14 121
M  ZZM  15 7
M  ZZI  15 81
M  ZZM  16 10
M  ZZI  16 191
M  ZZM  17 3
M  ZZI  17 121
M  ZZM  18 7
M  ZZI  18 81
M  ZZM  19 1
M  ZZI  19 112
M  ZZM  20 1
M  ZZI  20 112
M  ZZM  21 28
M  ZZI  21 11
M  ZZM  22 28
M  ZZI  22 11
M  ZZM  23 5
M  ZZI  23 1
M  ZZM  24 5
M  ZZI  24 1
M  ZZM  25 5
M  ZZI  25 1
M  ZZM  26 5
M  ZZI  26 1
M  ZZM  27 28
M  ZZI  27 11
M  ZZM  28 5
M  ZZI  28 1
M  ZZM  29 5
M  ZZI  29 1
M  ZZM  30 5
M  ZZI  30 1
M  ZZM  31 5
M  ZZI  31 1
M  END
> <IX>
1

> <NAME>
Cereblon_5J8O_28.pdb

> <Score>
-18.583295

> <Natom>
31

> <Nflex>
1

> <Hbond>
-3.653118

> <Hphob>
-3.560524

> <VwInt>
-24.27138

> <Dsolv>
15.146395

> <SolEl>
6.648809

> <Eintl>
1.613357

> <RecConf>
ND

> <projPath>
Cereblon_maps/

> <NAME_>
Cereblon_5J8O_28.pdb

$$$$
