Cereblon_6QJU_3.pdb
  MOLSOFT 04032206293D

 30 32  0  0  1  0  0  0  0  0999 V2000
   77.9460   41.5045   42.1587 C   0  0  0  0  0  0  0  0  0  0  0  0
   77.2295   41.4768   40.9691 C   0  0  0  0  0  0  0  0  0  0  0  0
   77.4631   42.4181   40.0026 C   0  0  0  0  0  0  0  0  0  0  0  0
   76.5598   42.1542   38.8762 C   0  0  0  0  0  0  0  0  0  0  0  0
   76.5547   42.7698   37.8193 O   0  0  0  0  0  0  0  0  0  0  0  0
   75.7495   41.1004   39.2536 N   0  0  0  0  0  0  0  0  0  0  0  0
   74.4711   40.7900   38.5911 C   0  0  2  0  0  0  0  0  0  0  0  0
   73.3710   41.5612   39.2950 C   0  0  0  0  0  0  0  0  0  0  0  0
   73.6059   42.4656   40.0767 O   0  0  0  0  0  0  0  0  0  0  0  0
   72.0841   41.1981   38.9827 N   0  0  0  0  0  0  0  0  0  0  0  0
   71.6707   40.1111   38.2519 C   0  0  0  0  0  0  0  0  0  0  0  0
   70.4921   39.9399   37.9752 O   0  0  0  0  0  0  0  0  0  0  0  0
   72.7706   39.1841   37.7699 C   0  0  0  0  0  0  0  0  0  0  0  0
   74.0536   39.3248   38.5853 C   0  0  0  0  0  0  0  0  0  0  0  0
   76.1596   40.5417   40.5294 C   0  0  0  0  0  0  0  0  0  0  0  0
   78.4015   43.4265   40.1456 C   0  0  0  0  0  0  0  0  0  0  0  0
   79.1297   43.4527   41.3276 C   0  0  0  0  0  0  0  0  0  0  0  0
   78.8997   42.5039   42.3230 C   0  0  0  0  0  0  0  0  0  0  0  0
   77.7730   40.7806   42.9495 H   0  0  0  0  0  0  0  0  0  0  0  0
   74.5161   41.1910   37.5722 H   0  0  0  0  0  0  0  0  0  0  0  0
   71.3601   41.8101   39.3393 H   0  0  0  0  0  0  0  0  0  0  0  0
   72.4066   38.1541   37.8374 H   0  0  0  0  0  0  0  0  0  0  0  0
   72.9605   39.4060   36.7141 H   0  0  0  0  0  0  0  0  0  0  0  0
   73.8821   38.9726   39.6094 H   0  0  0  0  0  0  0  0  0  0  0  0
   74.8390   38.6904   38.1661 H   0  0  0  0  0  0  0  0  0  0  0  0
   76.5280   39.5207   40.3831 H   0  0  0  0  0  0  0  0  0  0  0  0
   75.3178   40.5674   41.2155 H   0  0  0  0  0  0  0  0  0  0  0  0
   78.5553   44.1712   39.3718 H   0  0  0  0  0  0  0  0  0  0  0  0
   79.8740   44.2271   41.4833 H   0  0  0  0  0  0  0  0  0  0  0  0
   79.4715   42.5482   43.2449 H   0  0  0  0  0  0  0  0  0  0  0  0
  1 19  1  0  0  0  0
  1 18  2  0  0  0  0
  1  2  1  0  0  0  0
  2  3  2  0  0  0  0
  2 15  1  0  0  0  0
  3 16  1  0  0  0  0
  3  4  1  0  0  0  0
  4  6  1  0  0  0  0
  4  5  2  0  0  0  0
  6 15  1  0  0  0  0
  7  6  1  0  0  0  0
  7 20  1  0  0  0  0
  7  8  1  0  0  0  0
  7 14  1  0  0  0  0
  8  9  2  0  0  0  0
  8 10  1  0  0  0  0
 10 21  1  0  0  0  0
 10 11  1  0  0  0  0
 11 12  2  0  0  0  0
 11 13  1  0  0  0  0
 13 22  1  0  0  0  0
 13 23  1  0  0  0  0
 13 14  1  0  0  0  0
 14 24  1  0  0  0  0
 14 25  1  0  0  0  0
 15 26  1  0  0  0  0
 15 27  1  0  0  0  0
 16 17  2  0  0  0  0
 16 28  1  0  0  0  0
 17 18  1  0  0  0  0
 17 29  1  0  0  0  0
 18 30  1  0  0  0  0
M  ZZC   1 c1
M  ZZC   2 c2
M  ZZC   3 c3
M  ZZC   4 c4
M  ZZC   5 o1
M  ZZC   6 n1
M  ZZC   7 c5
M  ZZC   8 c6
M  ZZC   9 o2
M  ZZC  10 n2
M  ZZC  11 c7
M  ZZC  12 o3
M  ZZC  13 c8
M  ZZC  14 c9
M  ZZC  15 c10
M  ZZC  16 c11
M  ZZC  17 c12
M  ZZC  18 c13
M  ZZC  19 h11
M  ZZC  20 h51
M  ZZC  21 h21
M  ZZC  22 h81
M  ZZC  23 h82
M  ZZC  24 h91
M  ZZC  25 h92
M  ZZC  26 h101
M  ZZC  27 h102
M  ZZC  28 h111
M  ZZC  29 h121
M  ZZC  30 h131
M  ZZM   1 37
M  ZZI   1 125
M  ZZM   2 37
M  ZZI   2 124
M  ZZM   3 37
M  ZZI   3 124
M  ZZM   4 3
M  ZZI   4 121
M  ZZM   5 7
M  ZZI   5 81
M  ZZM   6 10
M  ZZI   6 192
M  ZZM   7 1
M  ZZI   7 113
M  ZZM   8 3
M  ZZI   8 121
M  ZZM   9 7
M  ZZI   9 81
M  ZZM  10 10
M  ZZI  10 191
M  ZZM  11 3
M  ZZI  11 121
M  ZZM  12 7
M  ZZI  12 81
M  ZZM  13 1
M  ZZI  13 112
M  ZZM  14 1
M  ZZI  14 112
M  ZZM  15 1
M  ZZI  15 112
M  ZZM  16 37
M  ZZI  16 125
M  ZZM  17 37
M  ZZI  17 125
M  ZZM  18 37
M  ZZI  18 125
M  ZZM  19 5
M  ZZI  19 1
M  ZZM  20 5
M  ZZI  20 1
M  ZZM  21 28
M  ZZI  21 11
M  ZZM  22 5
M  ZZI  22 1
M  ZZM  23 5
M  ZZI  23 1
M  ZZM  24 5
M  ZZI  24 1
M  ZZM  25 5
M  ZZI  25 1
M  ZZM  26 5
M  ZZI  26 1
M  ZZM  27 5
M  ZZI  27 1
M  ZZM  28 5
M  ZZI  28 1
M  ZZM  29 5
M  ZZI  29 1
M  ZZM  30 5
M  ZZI  30 1
M  END
> <IX>
1

> <NAME>
Cereblon_6QJU_3.pdb

> <Score>
-15.223934

> <Natom>
30

> <Nflex>
1

> <Hbond>
-4.225122

> <Hphob>
-3.708248

> <VwInt>
-19.414613

> <Dsolv>
13.695435

> <SolEl>
6.803791

> <Eintl>
3.337811

> <RecConf>
ND

> <projPath>
Cereblon_maps/

> <NAME_>
Cereblon_6QJU_3.pdb

$$$$
