Cereblon_5TOB_19.pdb
  MOLSOFT 04032206263D

 29 31  0  0  1  0  0  0  0  0999 V2000
   78.9954   42.4828   42.6738 C   0  0  0  0  0  0  0  0  0  0  0  0
   78.1791   42.1901   41.5959 C   0  0  0  0  0  0  0  0  0  0  0  0
   77.2645   41.0705   41.4068 C   0  0  0  0  0  0  0  0  0  0  0  0
   77.0850   40.2070   42.2517 O   0  0  0  0  0  0  0  0  0  0  0  0
   76.7248   41.2157   40.1421 N   0  0  0  0  0  0  0  0  0  0  0  0
   77.2204   42.3444   39.5213 C   0  0  0  0  0  0  0  0  0  0  0  0
   76.9876   42.7650   38.3954 O   0  0  0  0  0  0  0  0  0  0  0  0
   78.1532   42.9551   40.4688 C   0  0  0  0  0  0  0  0  0  0  0  0
   78.9504   44.0732   40.3307 C   0  0  0  0  0  0  0  0  0  0  0  0
   79.7924   44.3802   41.3941 C   0  0  0  0  0  0  0  0  0  0  0  0
   79.8142   43.5992   42.5505 C   0  0  0  0  0  0  0  0  0  0  0  0
   75.7147   40.3633   39.5096 C   0  0  2  0  0  0  0  0  0  0  0  0
   74.3351   40.9338   39.7972 C   0  0  0  0  0  0  0  0  0  0  0  0
   74.1496   42.1200   40.0130 O   0  0  0  0  0  0  0  0  0  0  0  0
   73.2837   40.0527   39.7219 N   0  0  0  0  0  0  0  0  0  0  0  0
   73.3204   38.7066   39.4508 C   0  0  0  0  0  0  0  0  0  0  0  0
   72.3044   38.0336   39.3941 O   0  0  0  0  0  0  0  0  0  0  0  0
   74.6843   38.1246   39.1721 C   0  0  0  0  0  0  0  0  0  0  0  0
   75.7666   38.8920   39.9100 C   0  0  0  0  0  0  0  0  0  0  0  0
   79.0018   41.8690   43.5704 H   0  0  0  0  0  0  0  0  0  0  0  0
   78.9215   44.6773   39.4316 H   0  0  0  0  0  0  0  0  0  0  0  0
   80.4430   45.2443   41.3259 H   0  0  0  0  0  0  0  0  0  0  0  0
   80.4811   43.8664   43.3654 H   0  0  0  0  0  0  0  0  0  0  0  0
   75.8539   40.4523   38.4303 H   0  0  0  0  0  0  0  0  0  0  0  0
   72.3657   40.4470   39.8855 H   0  0  0  0  0  0  0  0  0  0  0  0
   74.6889   37.0787   39.4954 H   0  0  0  0  0  0  0  0  0  0  0  0
   74.8466   38.1476   38.0901 H   0  0  0  0  0  0  0  0  0  0  0  0
   75.6022   38.7710   40.9843 H   0  0  0  0  0  0  0  0  0  0  0  0
   76.7513   38.4674   39.6890 H   0  0  0  0  0  0  0  0  0  0  0  0
  1 20  1  0  0  0  0
  1  2  1  0  0  0  0
  1 11  2  0  0  0  0
  2  3  1  0  0  0  0
  2  8  2  0  0  0  0
  3  4  2  0  0  0  0
  3  5  1  0  0  0  0
  5  6  1  0  0  0  0
 12  5  1  0  0  0  0
  6  7  2  0  0  0  0
  6  8  1  0  0  0  0
  8  9  1  0  0  0  0
  9 21  1  0  0  0  0
  9 10  2  0  0  0  0
 10 22  1  0  0  0  0
 10 11  1  0  0  0  0
 11 23  1  0  0  0  0
 12 24  1  0  0  0  0
 12 13  1  0  0  0  0
 12 19  1  0  0  0  0
 13 14  2  0  0  0  0
 13 15  1  0  0  0  0
 15 25  1  0  0  0  0
 15 16  1  0  0  0  0
 16 17  2  0  0  0  0
 16 18  1  0  0  0  0
 18 26  1  0  0  0  0
 18 27  1  0  0  0  0
 18 19  1  0  0  0  0
 19 28  1  0  0  0  0
 19 29  1  0  0  0  0
M  ZZC   1 c1
M  ZZC   2 c2
M  ZZC   3 c3
M  ZZC   4 o1
M  ZZC   5 n1
M  ZZC   6 c4
M  ZZC   7 o2
M  ZZC   8 c5
M  ZZC   9 c6
M  ZZC  10 c7
M  ZZC  11 c8
M  ZZC  12 c9
M  ZZC  13 c10
M  ZZC  14 o3
M  ZZC  15 n2
M  ZZC  16 c11
M  ZZC  17 o4
M  ZZC  18 c12
M  ZZC  19 c13
M  ZZC  20 h11
M  ZZC  21 h61
M  ZZC  22 h71
M  ZZC  23 h81
M  ZZC  24 h91
M  ZZC  25 h21
M  ZZC  26 h121
M  ZZC  27 h122
M  ZZC  28 h131
M  ZZC  29 h132
M  ZZM   1 37
M  ZZI   1 125
M  ZZM   2 37
M  ZZI   2 124
M  ZZM   3 3
M  ZZI   3 121
M  ZZM   4 7
M  ZZI   4 81
M  ZZM   5 10
M  ZZI   5 192
M  ZZM   6 3
M  ZZI   6 121
M  ZZM   7 7
M  ZZI   7 81
M  ZZM   8 37
M  ZZI   8 124
M  ZZM   9 37
M  ZZI   9 125
M  ZZM  10 37
M  ZZI  10 125
M  ZZM  11 37
M  ZZI  11 125
M  ZZM  12 1
M  ZZI  12 113
M  ZZM  13 3
M  ZZI  13 121
M  ZZM  14 7
M  ZZI  14 81
M  ZZM  15 10
M  ZZI  15 191
M  ZZM  16 3
M  ZZI  16 121
M  ZZM  17 7
M  ZZI  17 81
M  ZZM  18 1
M  ZZI  18 112
M  ZZM  19 1
M  ZZI  19 112
M  ZZM  20 5
M  ZZI  20 1
M  ZZM  21 5
M  ZZI  21 1
M  ZZM  22 5
M  ZZI  22 1
M  ZZM  23 5
M  ZZI  23 1
M  ZZM  24 5
M  ZZI  24 1
M  ZZM  25 28
M  ZZI  25 11
M  ZZM  26 5
M  ZZI  26 1
M  ZZM  27 5
M  ZZI  27 1
M  ZZM  28 5
M  ZZI  28 1
M  ZZM  29 5
M  ZZI  29 1
M  END
> <IX>
1

> <NAME>
Cereblon_5TOB_19.pdb

> <Score>
-19.192784

> <Natom>
29

> <Nflex>
1

> <Hbond>
-3.371989

> <Hphob>
-3.539096

> <VwInt>
-22.704225

> <Dsolv>
12.063252

> <SolEl>
5.863592

> <Eintl>
1.49393

> <RecConf>
ND

> <projPath>
Cereblon_maps/

> <NAME_>
Cereblon_5TOB_19.pdb

$$$$
