Cereblon_2EUF_7.pdb
  MOLSOFT 04032206193D

 31 33  0  0  1  0  0  0  0  0999 V2000
   78.8137   41.6774   43.8182 N   0  0  0  0  0  0  0  0  0  0  0  0
   78.9075   42.4219   42.6318 C   0  0  0  0  0  0  0  0  0  0  0  0
   78.1006   42.1575   41.5380 C   0  0  0  0  0  0  0  0  0  0  0  0
   77.1796   41.0471   41.3308 C   0  0  0  0  0  0  0  0  0  0  0  0
   76.9987   40.1642   42.1562 O   0  0  0  0  0  0  0  0  0  0  0  0
   76.6452   41.2114   40.0682 N   0  0  0  0  0  0  0  0  0  0  0  0
   77.1661   42.3324   39.4546 C   0  0  0  0  0  0  0  0  0  0  0  0
   76.9534   42.7551   38.3256 O   0  0  0  0  0  0  0  0  0  0  0  0
   78.0975   42.9275   40.4144 C   0  0  0  0  0  0  0  0  0  0  0  0
   78.9091   44.0368   40.2938 C   0  0  0  0  0  0  0  0  0  0  0  0
   79.7251   44.3364   41.3787 C   0  0  0  0  0  0  0  0  0  0  0  0
   79.7121   43.5532   42.5344 C   0  0  0  0  0  0  0  0  0  0  0  0
   75.6252   40.3755   39.4315 C   0  0  2  0  0  0  0  0  0  0  0  0
   74.2539   40.9543   39.7357 C   0  0  0  0  0  0  0  0  0  0  0  0
   74.0841   42.1345   39.9930 O   0  0  0  0  0  0  0  0  0  0  0  0
   73.1927   40.0897   39.6215 N   0  0  0  0  0  0  0  0  0  0  0  0
   73.2171   38.7519   39.3093 C   0  0  0  0  0  0  0  0  0  0  0  0
   72.1920   38.0990   39.2012 O   0  0  0  0  0  0  0  0  0  0  0  0
   74.5800   38.1526   39.0567 C   0  0  0  0  0  0  0  0  0  0  0  0
   75.6579   38.9011   39.8208 C   0  0  0  0  0  0  0  0  0  0  0  0
   79.5544   41.7597   44.5111 H   0  0  0  0  0  0  0  0  0  0  0  0
   78.3234   40.7827   43.7756 H   0  0  0  0  0  0  0  0  0  0  0  0
   78.9013   44.6452   39.3972 H   0  0  0  0  0  0  0  0  0  0  0  0
   80.3728   45.2050   41.3344 H   0  0  0  0  0  0  0  0  0  0  0  0
   80.3436   43.8350   43.3714 H   0  0  0  0  0  0  0  0  0  0  0  0
   75.7602   40.4752   38.3532 H   0  0  0  0  0  0  0  0  0  0  0  0
   72.2775   40.4922   39.7814 H   0  0  0  0  0  0  0  0  0  0  0  0
   74.5642   37.1048   39.3729 H   0  0  0  0  0  0  0  0  0  0  0  0
   74.7679   38.1783   37.9788 H   0  0  0  0  0  0  0  0  0  0  0  0
   75.4727   38.7737   40.8913 H   0  0  0  0  0  0  0  0  0  0  0  0
   76.6424   38.4696   39.6135 H   0  0  0  0  0  0  0  0  0  0  0  0
  1  2  1  0  0  0  0
  1 21  1  0  0  0  0
  1 22  1  0  0  0  0
  2  3  1  0  0  0  0
  2 12  2  0  0  0  0
  3  9  2  0  0  0  0
  3  4  1  0  0  0  0
  4  5  2  0  0  0  0
  4  6  1  0  0  0  0
  6  7  1  0  0  0  0
 13  6  1  0  0  0  0
  7  8  2  0  0  0  0
  7  9  1  0  0  0  0
  9 10  1  0  0  0  0
 10 23  1  0  0  0  0
 10 11  2  0  0  0  0
 11 12  1  0  0  0  0
 11 24  1  0  0  0  0
 12 25  1  0  0  0  0
 13 26  1  0  0  0  0
 13 14  1  0  0  0  0
 13 20  1  0  0  0  0
 14 15  2  0  0  0  0
 14 16  1  0  0  0  0
 16 27  1  0  0  0  0
 16 17  1  0  0  0  0
 17 18  2  0  0  0  0
 17 19  1  0  0  0  0
 19 28  1  0  0  0  0
 19 29  1  0  0  0  0
 19 20  1  0  0  0  0
 20 30  1  0  0  0  0
 20 31  1  0  0  0  0
M  ZZC   1 n1
M  ZZC   2 c1
M  ZZC   3 c2
M  ZZC   4 c3
M  ZZC   5 o1
M  ZZC   6 n2
M  ZZC   7 c4
M  ZZC   8 o2
M  ZZC   9 c5
M  ZZC  10 c6
M  ZZC  11 c7
M  ZZC  12 c8
M  ZZC  13 c9
M  ZZC  14 c10
M  ZZC  15 o3
M  ZZC  16 n3
M  ZZC  17 c11
M  ZZC  18 o4
M  ZZC  19 c12
M  ZZC  20 c13
M  ZZC  21 h11
M  ZZC  22 h12
M  ZZC  23 h61
M  ZZC  24 h71
M  ZZC  25 h81
M  ZZC  26 h91
M  ZZC  27 h31
M  ZZC  28 h121
M  ZZC  29 h122
M  ZZC  30 h131
M  ZZC  31 h132
M  ZZM   1 40
M  ZZI   1 224
M  ZZM   2 37
M  ZZI   2 124
M  ZZM   3 37
M  ZZI   3 124
M  ZZM   4 3
M  ZZI   4 121
M  ZZM   5 7
M  ZZI   5 81
M  ZZM   6 10
M  ZZI   6 192
M  ZZM   7 3
M  ZZI   7 121
M  ZZM   8 7
M  ZZI   8 81
M  ZZM   9 37
M  ZZI   9 124
M  ZZM  10 37
M  ZZI  10 125
M  ZZM  11 37
M  ZZI  11 125
M  ZZM  12 37
M  ZZI  12 125
M  ZZM  13 1
M  ZZI  13 113
M  ZZM  14 3
M  ZZI  14 121
M  ZZM  15 7
M  ZZI  15 81
M  ZZM  16 10
M  ZZI  16 191
M  ZZM  17 3
M  ZZI  17 121
M  ZZM  18 7
M  ZZI  18 81
M  ZZM  19 1
M  ZZI  19 112
M  ZZM  20 1
M  ZZI  20 112
M  ZZM  21 28
M  ZZI  21 11
M  ZZM  22 28
M  ZZI  22 11
M  ZZM  23 5
M  ZZI  23 1
M  ZZM  24 5
M  ZZI  24 1
M  ZZM  25 5
M  ZZI  25 1
M  ZZM  26 5
M  ZZI  26 1
M  ZZM  27 28
M  ZZI  27 11
M  ZZM  28 5
M  ZZI  28 1
M  ZZM  29 5
M  ZZI  29 1
M  ZZM  30 5
M  ZZI  30 1
M  ZZM  31 5
M  ZZI  31 1
M  END
> <IX>
1

> <NAME>
Cereblon_2EUF_7.pdb

> <Score>
-18.045903

> <Natom>
31

> <Nflex>
1

> <Hbond>
-3.655074

> <Hphob>
-3.535243

> <VwInt>
-24.362019

> <Dsolv>
15.278379

> <SolEl>
7.354208

> <Eintl>
1.699174

> <RecConf>
ND

> <projPath>
Cereblon_maps/

> <NAME_>
Cereblon_2EUF_7.pdb

$$$$
