Cereblon_3K6P_15.pdb
  MOLSOFT 04032206213D

 31 33  0  0  1  0  0  0  0  0999 V2000
   78.0713   40.6248   42.6769 N   0  0  0  0  0  0  0  0  0  0  0  0
   78.1301   41.7184   41.7979 C   0  0  0  0  0  0  0  0  0  0  0  0
   77.3086   41.8190   40.6836 C   0  0  0  0  0  0  0  0  0  0  0  0
   76.2392   40.9352   40.2250 C   0  0  0  0  0  0  0  0  0  0  0  0
   75.9853   39.8471   40.7222 O   0  0  0  0  0  0  0  0  0  0  0  0
   75.6266   41.5699   39.1602 N   0  0  0  0  0  0  0  0  0  0  0  0
   76.3582   42.6789   38.7861 C   0  0  0  0  0  0  0  0  0  0  0  0
   76.2602   43.3837   37.7929 O   0  0  0  0  0  0  0  0  0  0  0  0
   77.3911   42.8570   39.8064 C   0  0  0  0  0  0  0  0  0  0  0  0
   78.3353   43.8581   39.9421 C   0  0  0  0  0  0  0  0  0  0  0  0
   79.1974   43.7668   41.0274 C   0  0  0  0  0  0  0  0  0  0  0  0
   79.0921   42.7163   41.9407 C   0  0  0  0  0  0  0  0  0  0  0  0
   74.3836   41.0596   38.5536 C   0  0  1  0  0  0  0  0  0  0  0  0
   73.2382   41.3276   39.5208 C   0  0  0  0  0  0  0  0  0  0  0  0
   73.4056   41.6074   40.6954 O   0  0  0  0  0  0  0  0  0  0  0  0
   71.9724   41.1820   39.0121 N   0  0  0  0  0  0  0  0  0  0  0  0
   71.6045   40.9468   37.7129 C   0  0  0  0  0  0  0  0  0  0  0  0
   70.4449   40.7020   37.4174 O   0  0  0  0  0  0  0  0  0  0  0  0
   72.7280   40.9531   36.6974 C   0  0  0  0  0  0  0  0  0  0  0  0
   73.9601   41.6794   37.2217 C   0  0  0  0  0  0  0  0  0  0  0  0
   78.6417   40.6136   43.5213 H   0  0  0  0  0  0  0  0  0  0  0  0
   77.2709   39.9935   42.6168 H   0  0  0  0  0  0  0  0  0  0  0  0
   78.3998   44.6780   39.2352 H   0  0  0  0  0  0  0  0  0  0  0  0
   79.9566   44.5289   41.1737 H   0  0  0  0  0  0  0  0  0  0  0  0
   79.7777   42.6810   42.7816 H   0  0  0  0  0  0  0  0  0  0  0  0
   74.4834   39.9711   38.4680 H   0  0  0  0  0  0  0  0  0  0  0  0
   71.2161   41.2751   39.6776 H   0  0  0  0  0  0  0  0  0  0  0  0
   72.9680   39.9141   36.4484 H   0  0  0  0  0  0  0  0  0  0  0  0
   72.3706   41.4455   35.7872 H   0  0  0  0  0  0  0  0  0  0  0  0
   74.7599   41.6286   36.4818 H   0  0  0  0  0  0  0  0  0  0  0  0
   73.7249   42.7426   37.3504 H   0  0  0  0  0  0  0  0  0  0  0  0
  1  2  1  0  0  0  0
  1 21  1  0  0  0  0
  1 22  1  0  0  0  0
  2  3  1  0  0  0  0
  2 12  2  0  0  0  0
  3  9  2  0  0  0  0
  3  4  1  0  0  0  0
  4  5  2  0  0  0  0
  4  6  1  0  0  0  0
  6  7  1  0  0  0  0
 13  6  1  0  0  0  0
  7  8  2  0  0  0  0
  7  9  1  0  0  0  0
  9 10  1  0  0  0  0
 10 23  1  0  0  0  0
 10 11  2  0  0  0  0
 11 12  1  0  0  0  0
 11 24  1  0  0  0  0
 12 25  1  0  0  0  0
 13 26  1  0  0  0  0
 13 14  1  0  0  0  0
 13 20  1  0  0  0  0
 14 15  2  0  0  0  0
 14 16  1  0  0  0  0
 16 27  1  0  0  0  0
 16 17  1  0  0  0  0
 17 18  2  0  0  0  0
 17 19  1  0  0  0  0
 19 28  1  0  0  0  0
 19 29  1  0  0  0  0
 19 20  1  0  0  0  0
 20 30  1  0  0  0  0
 20 31  1  0  0  0  0
M  ZZC   1 n1
M  ZZC   2 c1
M  ZZC   3 c2
M  ZZC   4 c3
M  ZZC   5 o1
M  ZZC   6 n2
M  ZZC   7 c4
M  ZZC   8 o2
M  ZZC   9 c5
M  ZZC  10 c6
M  ZZC  11 c7
M  ZZC  12 c8
M  ZZC  13 c9
M  ZZC  14 c10
M  ZZC  15 o3
M  ZZC  16 n3
M  ZZC  17 c11
M  ZZC  18 o4
M  ZZC  19 c12
M  ZZC  20 c13
M  ZZC  21 h11
M  ZZC  22 h12
M  ZZC  23 h61
M  ZZC  24 h71
M  ZZC  25 h81
M  ZZC  26 h91
M  ZZC  27 h31
M  ZZC  28 h121
M  ZZC  29 h122
M  ZZC  30 h131
M  ZZC  31 h132
M  ZZM   1 40
M  ZZI   1 224
M  ZZM   2 37
M  ZZI   2 124
M  ZZM   3 37
M  ZZI   3 124
M  ZZM   4 3
M  ZZI   4 121
M  ZZM   5 7
M  ZZI   5 81
M  ZZM   6 10
M  ZZI   6 192
M  ZZM   7 3
M  ZZI   7 121
M  ZZM   8 7
M  ZZI   8 81
M  ZZM   9 37
M  ZZI   9 124
M  ZZM  10 37
M  ZZI  10 125
M  ZZM  11 37
M  ZZI  11 125
M  ZZM  12 37
M  ZZI  12 125
M  ZZM  13 1
M  ZZI  13 113
M  ZZM  14 3
M  ZZI  14 121
M  ZZM  15 7
M  ZZI  15 81
M  ZZM  16 10
M  ZZI  16 191
M  ZZM  17 3
M  ZZI  17 121
M  ZZM  18 7
M  ZZI  18 81
M  ZZM  19 1
M  ZZI  19 112
M  ZZM  20 1
M  ZZI  20 112
M  ZZM  21 28
M  ZZI  21 11
M  ZZM  22 28
M  ZZI  22 11
M  ZZM  23 5
M  ZZI  23 1
M  ZZM  24 5
M  ZZI  24 1
M  ZZM  25 5
M  ZZI  25 1
M  ZZM  26 5
M  ZZI  26 1
M  ZZM  27 28
M  ZZI  27 11
M  ZZM  28 5
M  ZZI  28 1
M  ZZM  29 5
M  ZZI  29 1
M  ZZM  30 5
M  ZZI  30 1
M  ZZM  31 5
M  ZZI  31 1
M  END
> <IX>
1

> <NAME>
Cereblon_3K6P_15.pdb

> <Score>
-14.38856

> <Natom>
31

> <Nflex>
1

> <Hbond>
-2.698429

> <Hphob>
-3.729207

> <VwInt>
-27.049696

> <Dsolv>
17.147407

> <SolEl>
7.610462

> <Eintl>
5.838783

> <RecConf>
ND

> <projPath>
Cereblon_maps/

> <NAME_>
Cereblon_3K6P_15.pdb

$$$$
