Cereblon_3HLL_7.pdb
  MOLSOFT 04032206213D

 31 33  0  0  1  0  0  0  0  0999 V2000
   78.8171   41.6760   43.8075 N   0  0  0  0  0  0  0  0  0  0  0  0
   78.8966   42.4307   42.6267 C   0  0  0  0  0  0  0  0  0  0  0  0
   78.0939   42.1601   41.5310 C   0  0  0  0  0  0  0  0  0  0  0  0
   77.1726   41.0495   41.3254 C   0  0  0  0  0  0  0  0  0  0  0  0
   76.9919   40.1681   42.1522 O   0  0  0  0  0  0  0  0  0  0  0  0
   76.6356   41.2146   40.0640 N   0  0  0  0  0  0  0  0  0  0  0  0
   77.1591   42.3331   39.4475 C   0  0  0  0  0  0  0  0  0  0  0  0
   76.9502   42.7519   38.3164 O   0  0  0  0  0  0  0  0  0  0  0  0
   78.0911   42.9285   40.4061 C   0  0  0  0  0  0  0  0  0  0  0  0
   78.9047   44.0364   40.2833 C   0  0  0  0  0  0  0  0  0  0  0  0
   79.7241   44.3353   41.3658 C   0  0  0  0  0  0  0  0  0  0  0  0
   79.7117   43.5540   42.5231 C   0  0  0  0  0  0  0  0  0  0  0  0
   75.6176   40.3758   39.4275 C   0  0  2  0  0  0  0  0  0  0  0  0
   74.2461   40.9555   39.7286 C   0  0  0  0  0  0  0  0  0  0  0  0
   74.0764   42.1346   39.9901 O   0  0  0  0  0  0  0  0  0  0  0  0
   73.1848   40.0925   39.6050 N   0  0  0  0  0  0  0  0  0  0  0  0
   73.2096   38.7551   39.2908 C   0  0  0  0  0  0  0  0  0  0  0  0
   72.1842   38.1054   39.1692 O   0  0  0  0  0  0  0  0  0  0  0  0
   74.5738   38.1512   39.0547 C   0  0  0  0  0  0  0  0  0  0  0  0
   75.6489   38.9023   39.8202 C   0  0  0  0  0  0  0  0  0  0  0  0
   79.5377   41.7719   44.5199 H   0  0  0  0  0  0  0  0  0  0  0  0
   78.2741   40.8110   43.7935 H   0  0  0  0  0  0  0  0  0  0  0  0
   78.8982   44.6422   39.3848 H   0  0  0  0  0  0  0  0  0  0  0  0
   80.3771   45.1997   41.3175 H   0  0  0  0  0  0  0  0  0  0  0  0
   80.3497   43.8320   43.3565 H   0  0  0  0  0  0  0  0  0  0  0  0
   75.7536   40.4729   38.3492 H   0  0  0  0  0  0  0  0  0  0  0  0
   72.2688   40.4958   39.7589 H   0  0  0  0  0  0  0  0  0  0  0  0
   74.5533   37.1057   39.3782 H   0  0  0  0  0  0  0  0  0  0  0  0
   74.7702   38.1686   37.9782 H   0  0  0  0  0  0  0  0  0  0  0  0
   75.4609   38.7770   40.8905 H   0  0  0  0  0  0  0  0  0  0  0  0
   76.6343   38.4712   39.6163 H   0  0  0  0  0  0  0  0  0  0  0  0
  1  2  1  0  0  0  0
  1 21  1  0  0  0  0
  1 22  1  0  0  0  0
  2  3  1  0  0  0  0
  2 12  2  0  0  0  0
  3  9  2  0  0  0  0
  3  4  1  0  0  0  0
  4  5  2  0  0  0  0
  4  6  1  0  0  0  0
  6  7  1  0  0  0  0
 13  6  1  0  0  0  0
  7  8  2  0  0  0  0
  7  9  1  0  0  0  0
  9 10  1  0  0  0  0
 10 23  1  0  0  0  0
 10 11  2  0  0  0  0
 11 12  1  0  0  0  0
 11 24  1  0  0  0  0
 12 25  1  0  0  0  0
 13 26  1  0  0  0  0
 13 14  1  0  0  0  0
 13 20  1  0  0  0  0
 14 15  2  0  0  0  0
 14 16  1  0  0  0  0
 16 27  1  0  0  0  0
 16 17  1  0  0  0  0
 17 18  2  0  0  0  0
 17 19  1  0  0  0  0
 19 28  1  0  0  0  0
 19 29  1  0  0  0  0
 19 20  1  0  0  0  0
 20 30  1  0  0  0  0
 20 31  1  0  0  0  0
M  ZZC   1 n1
M  ZZC   2 c1
M  ZZC   3 c2
M  ZZC   4 c3
M  ZZC   5 o1
M  ZZC   6 n2
M  ZZC   7 c4
M  ZZC   8 o2
M  ZZC   9 c5
M  ZZC  10 c6
M  ZZC  11 c7
M  ZZC  12 c8
M  ZZC  13 c9
M  ZZC  14 c10
M  ZZC  15 o3
M  ZZC  16 n3
M  ZZC  17 c11
M  ZZC  18 o4
M  ZZC  19 c12
M  ZZC  20 c13
M  ZZC  21 h11
M  ZZC  22 h12
M  ZZC  23 h61
M  ZZC  24 h71
M  ZZC  25 h81
M  ZZC  26 h91
M  ZZC  27 h31
M  ZZC  28 h121
M  ZZC  29 h122
M  ZZC  30 h131
M  ZZC  31 h132
M  ZZM   1 40
M  ZZI   1 224
M  ZZM   2 37
M  ZZI   2 124
M  ZZM   3 37
M  ZZI   3 124
M  ZZM   4 3
M  ZZI   4 121
M  ZZM   5 7
M  ZZI   5 81
M  ZZM   6 10
M  ZZI   6 192
M  ZZM   7 3
M  ZZI   7 121
M  ZZM   8 7
M  ZZI   8 81
M  ZZM   9 37
M  ZZI   9 124
M  ZZM  10 37
M  ZZI  10 125
M  ZZM  11 37
M  ZZI  11 125
M  ZZM  12 37
M  ZZI  12 125
M  ZZM  13 1
M  ZZI  13 113
M  ZZM  14 3
M  ZZI  14 121
M  ZZM  15 7
M  ZZI  15 81
M  ZZM  16 10
M  ZZI  16 191
M  ZZM  17 3
M  ZZI  17 121
M  ZZM  18 7
M  ZZI  18 81
M  ZZM  19 1
M  ZZI  19 112
M  ZZM  20 1
M  ZZI  20 112
M  ZZM  21 28
M  ZZI  21 11
M  ZZM  22 28
M  ZZI  22 11
M  ZZM  23 5
M  ZZI  23 1
M  ZZM  24 5
M  ZZI  24 1
M  ZZM  25 5
M  ZZI  25 1
M  ZZM  26 5
M  ZZI  26 1
M  ZZM  27 28
M  ZZI  27 11
M  ZZM  28 5
M  ZZI  28 1
M  ZZM  29 5
M  ZZI  29 1
M  ZZM  30 5
M  ZZI  30 1
M  ZZM  31 5
M  ZZI  31 1
M  END
> <IX>
1

> <NAME>
Cereblon_3HLL_7.pdb

> <Score>
-18.692426

> <Natom>
31

> <Nflex>
1

> <Hbond>
-3.61151

> <Hphob>
-3.565891

> <VwInt>
-24.375779

> <Dsolv>
15.201899

> <SolEl>
6.345884

> <Eintl>
1.699853

> <RecConf>
ND

> <projPath>
Cereblon_maps/

> <NAME_>
Cereblon_3HLL_7.pdb

$$$$
