Cereblon_6Z45_9.pdb
  MOLSOFT 04032206303D

 29 31  0  0  1  0  0  0  0  0999 V2000
   79.0041   42.4884   42.6751 C   0  0  0  0  0  0  0  0  0  0  0  0
   78.1854   42.1943   41.5992 C   0  0  0  0  0  0  0  0  0  0  0  0
   77.2681   41.0760   41.4127 C   0  0  0  0  0  0  0  0  0  0  0  0
   77.0886   40.2147   42.2597 O   0  0  0  0  0  0  0  0  0  0  0  0
   76.7273   41.2194   40.1482 N   0  0  0  0  0  0  0  0  0  0  0  0
   77.2232   42.3472   39.5262 C   0  0  0  0  0  0  0  0  0  0  0  0
   76.9876   42.7655   38.4000 O   0  0  0  0  0  0  0  0  0  0  0  0
   78.1583   42.9580   40.4712 C   0  0  0  0  0  0  0  0  0  0  0  0
   78.9574   44.0742   40.3299 C   0  0  0  0  0  0  0  0  0  0  0  0
   79.8002   44.3825   41.3918 C   0  0  0  0  0  0  0  0  0  0  0  0
   79.8235   43.6035   42.5491 C   0  0  0  0  0  0  0  0  0  0  0  0
   75.7197   40.3647   39.5138 C   0  0  2  0  0  0  0  0  0  0  0  0
   74.3391   40.9325   39.8021 C   0  0  0  0  0  0  0  0  0  0  0  0
   74.1514   42.1190   40.0149 O   0  0  0  0  0  0  0  0  0  0  0  0
   73.2893   40.0498   39.7282 N   0  0  0  0  0  0  0  0  0  0  0  0
   73.3279   38.7041   39.4565 C   0  0  0  0  0  0  0  0  0  0  0  0
   72.3128   38.0296   39.3997 O   0  0  0  0  0  0  0  0  0  0  0  0
   74.6928   38.1241   39.1783 C   0  0  0  0  0  0  0  0  0  0  0  0
   75.7748   38.8939   39.9148 C   0  0  0  0  0  0  0  0  0  0  0  0
   79.0155   41.8720   43.5697 H   0  0  0  0  0  0  0  0  0  0  0  0
   78.9269   44.6761   39.4295 H   0  0  0  0  0  0  0  0  0  0  0  0
   80.4497   45.2475   41.3222 H   0  0  0  0  0  0  0  0  0  0  0  0
   80.4918   43.8711   43.3627 H   0  0  0  0  0  0  0  0  0  0  0  0
   75.8603   40.4526   38.4345 H   0  0  0  0  0  0  0  0  0  0  0  0
   72.3706   40.4427   39.8920 H   0  0  0  0  0  0  0  0  0  0  0  0
   74.6998   37.0781   39.5009 H   0  0  0  0  0  0  0  0  0  0  0  0
   74.8528   38.1473   38.0960 H   0  0  0  0  0  0  0  0  0  0  0  0
   76.7604   38.4729   39.6911 H   0  0  0  0  0  0  0  0  0  0  0  0
   75.6125   38.7741   40.9896 H   0  0  0  0  0  0  0  0  0  0  0  0
  1 20  1  0  0  0  0
  1  2  1  0  0  0  0
  1 11  2  0  0  0  0
  2  3  1  0  0  0  0
  2  8  2  0  0  0  0
  3  4  2  0  0  0  0
  3  5  1  0  0  0  0
  5  6  1  0  0  0  0
 12  5  1  0  0  0  0
  6  7  2  0  0  0  0
  6  8  1  0  0  0  0
  8  9  1  0  0  0  0
  9 21  1  0  0  0  0
  9 10  2  0  0  0  0
 10 22  1  0  0  0  0
 10 11  1  0  0  0  0
 11 23  1  0  0  0  0
 12 24  1  0  0  0  0
 12 13  1  0  0  0  0
 12 19  1  0  0  0  0
 13 14  2  0  0  0  0
 13 15  1  0  0  0  0
 15 25  1  0  0  0  0
 15 16  1  0  0  0  0
 16 17  2  0  0  0  0
 16 18  1  0  0  0  0
 18 26  1  0  0  0  0
 18 27  1  0  0  0  0
 18 19  1  0  0  0  0
 19 28  1  0  0  0  0
 19 29  1  0  0  0  0
M  ZZC   1 c1
M  ZZC   2 c2
M  ZZC   3 c3
M  ZZC   4 o1
M  ZZC   5 n1
M  ZZC   6 c4
M  ZZC   7 o2
M  ZZC   8 c5
M  ZZC   9 c6
M  ZZC  10 c7
M  ZZC  11 c8
M  ZZC  12 c9
M  ZZC  13 c10
M  ZZC  14 o3
M  ZZC  15 n2
M  ZZC  16 c11
M  ZZC  17 o4
M  ZZC  18 c12
M  ZZC  19 c13
M  ZZC  20 h11
M  ZZC  21 h61
M  ZZC  22 h71
M  ZZC  23 h81
M  ZZC  24 h91
M  ZZC  25 h21
M  ZZC  26 h121
M  ZZC  27 h122
M  ZZC  28 h131
M  ZZC  29 h132
M  ZZM   1 37
M  ZZI   1 125
M  ZZM   2 37
M  ZZI   2 124
M  ZZM   3 3
M  ZZI   3 121
M  ZZM   4 7
M  ZZI   4 81
M  ZZM   5 10
M  ZZI   5 192
M  ZZM   6 3
M  ZZI   6 121
M  ZZM   7 7
M  ZZI   7 81
M  ZZM   8 37
M  ZZI   8 124
M  ZZM   9 37
M  ZZI   9 125
M  ZZM  10 37
M  ZZI  10 125
M  ZZM  11 37
M  ZZI  11 125
M  ZZM  12 1
M  ZZI  12 113
M  ZZM  13 3
M  ZZI  13 121
M  ZZM  14 7
M  ZZI  14 81
M  ZZM  15 10
M  ZZI  15 191
M  ZZM  16 3
M  ZZI  16 121
M  ZZM  17 7
M  ZZI  17 81
M  ZZM  18 1
M  ZZI  18 112
M  ZZM  19 1
M  ZZI  19 112
M  ZZM  20 5
M  ZZI  20 1
M  ZZM  21 5
M  ZZI  21 1
M  ZZM  22 5
M  ZZI  22 1
M  ZZM  23 5
M  ZZI  23 1
M  ZZM  24 5
M  ZZI  24 1
M  ZZM  25 28
M  ZZI  25 11
M  ZZM  26 5
M  ZZI  26 1
M  ZZM  27 5
M  ZZI  27 1
M  ZZM  28 5
M  ZZI  28 1
M  ZZM  29 5
M  ZZI  29 1
M  END
> <IX>
1

> <NAME>
Cereblon_6Z45_9.pdb

> <Score>
-19.266777

> <Natom>
29

> <Nflex>
1

> <Hbond>
-3.290243

> <Hphob>
-3.515362

> <VwInt>
-22.842028

> <Dsolv>
12.058542

> <SolEl>
5.625302

> <Eintl>
1.497085

> <RecConf>
ND

> <projPath>
Cereblon_maps/

> <NAME_>
Cereblon_6Z45_9.pdb

$$$$
