Cereblon_4XUF_3.pdb
  MOLSOFT 04032206243D

 29 31  0  0  1  0  0  0  0  0999 V2000
   81.5893   53.9076   19.7912 C   0  0  0  0  0  0  0  0  0  0  0  0
   80.9477   54.8867   20.5285 C   0  0  0  0  0  0  0  0  0  0  0  0
   79.7733   54.7911   21.3908 C   0  0  0  0  0  0  0  0  0  0  0  0
   79.1653   53.7536   21.6118 O   0  0  0  0  0  0  0  0  0  0  0  0
   79.5619   56.0578   21.8961 N   0  0  0  0  0  0  0  0  0  0  0  0
   80.5052   56.9458   21.4271 C   0  0  0  0  0  0  0  0  0  0  0  0
   80.6431   58.1388   21.6553 O   0  0  0  0  0  0  0  0  0  0  0  0
   81.3819   56.1774   20.5506 C   0  0  0  0  0  0  0  0  0  0  0  0
   82.4865   56.5948   19.8361 C   0  0  0  0  0  0  0  0  0  0  0  0
   83.1412   55.6292   19.0849 C   0  0  0  0  0  0  0  0  0  0  0  0
   82.7042   54.3039   19.0621 C   0  0  0  0  0  0  0  0  0  0  0  0
   78.4712   56.3799   22.8145 C   0  0  2  0  0  0  0  0  0  0  0  0
   77.3544   57.1206   22.1065 C   0  0  0  0  0  0  0  0  0  0  0  0
   77.1927   57.1051   20.8954 O   0  0  0  0  0  0  0  0  0  0  0  0
   76.4671   57.7490   22.9481 N   0  0  0  0  0  0  0  0  0  0  0  0
   76.5062   57.8522   24.3181 C   0  0  0  0  0  0  0  0  0  0  0  0
   75.5908   58.3531   24.9510 O   0  0  0  0  0  0  0  0  0  0  0  0
   77.7217   57.2661   24.9972 C   0  0  0  0  0  0  0  0  0  0  0  0
   78.8952   57.1831   24.0404 C   0  0  0  0  0  0  0  0  0  0  0  0
   81.2362   52.8805   19.7748 H   0  0  0  0  0  0  0  0  0  0  0  0
   82.8293   57.6249   19.8623 H   0  0  0  0  0  0  0  0  0  0  0  0
   84.0112   55.9201   18.5081 H   0  0  0  0  0  0  0  0  0  0  0  0
   83.2408   53.5725   18.4649 H   0  0  0  0  0  0  0  0  0  0  0  0
   78.0340   55.4315   23.1322 H   0  0  0  0  0  0  0  0  0  0  0  0
   75.6849   58.2033   22.4964 H   0  0  0  0  0  0  0  0  0  0  0  0
   77.9843   57.8915   25.8563 H   0  0  0  0  0  0  0  0  0  0  0  0
   77.4618   56.2715   25.3673 H   0  0  0  0  0  0  0  0  0  0  0  0
   79.7481   56.7155   24.5392 H   0  0  0  0  0  0  0  0  0  0  0  0
   79.2074   58.1950   23.7605 H   0  0  0  0  0  0  0  0  0  0  0  0
  1 20  1  0  0  0  0
  1  2  1  0  0  0  0
  1 11  2  0  0  0  0
  2  3  1  0  0  0  0
  2  8  2  0  0  0  0
  3  4  2  0  0  0  0
  3  5  1  0  0  0  0
  5  6  1  0  0  0  0
 12  5  1  0  0  0  0
  6  7  2  0  0  0  0
  6  8  1  0  0  0  0
  8  9  1  0  0  0  0
  9 21  1  0  0  0  0
  9 10  2  0  0  0  0
 10 22  1  0  0  0  0
 10 11  1  0  0  0  0
 11 23  1  0  0  0  0
 12 24  1  0  0  0  0
 12 13  1  0  0  0  0
 12 19  1  0  0  0  0
 13 14  2  0  0  0  0
 13 15  1  0  0  0  0
 15 25  1  0  0  0  0
 15 16  1  0  0  0  0
 16 17  2  0  0  0  0
 16 18  1  0  0  0  0
 18 26  1  0  0  0  0
 18 27  1  0  0  0  0
 18 19  1  0  0  0  0
 19 28  1  0  0  0  0
 19 29  1  0  0  0  0
M  ZZC   1 c1
M  ZZC   2 c2
M  ZZC   3 c3
M  ZZC   4 o1
M  ZZC   5 n1
M  ZZC   6 c4
M  ZZC   7 o2
M  ZZC   8 c5
M  ZZC   9 c6
M  ZZC  10 c7
M  ZZC  11 c8
M  ZZC  12 c9
M  ZZC  13 c10
M  ZZC  14 o3
M  ZZC  15 n2
M  ZZC  16 c11
M  ZZC  17 o4
M  ZZC  18 c12
M  ZZC  19 c13
M  ZZC  20 h11
M  ZZC  21 h61
M  ZZC  22 h71
M  ZZC  23 h81
M  ZZC  24 h91
M  ZZC  25 h21
M  ZZC  26 h121
M  ZZC  27 h122
M  ZZC  28 h131
M  ZZC  29 h132
M  ZZM   1 37
M  ZZI   1 125
M  ZZM   2 37
M  ZZI   2 124
M  ZZM   3 3
M  ZZI   3 121
M  ZZM   4 7
M  ZZI   4 81
M  ZZM   5 10
M  ZZI   5 192
M  ZZM   6 3
M  ZZI   6 121
M  ZZM   7 7
M  ZZI   7 81
M  ZZM   8 37
M  ZZI   8 124
M  ZZM   9 37
M  ZZI   9 125
M  ZZM  10 37
M  ZZI  10 125
M  ZZM  11 37
M  ZZI  11 125
M  ZZM  12 1
M  ZZI  12 113
M  ZZM  13 3
M  ZZI  13 121
M  ZZM  14 7
M  ZZI  14 81
M  ZZM  15 10
M  ZZI  15 191
M  ZZM  16 3
M  ZZI  16 121
M  ZZM  17 7
M  ZZI  17 81
M  ZZM  18 1
M  ZZI  18 112
M  ZZM  19 1
M  ZZI  19 112
M  ZZM  20 5
M  ZZI  20 1
M  ZZM  21 5
M  ZZI  21 1
M  ZZM  22 5
M  ZZI  22 1
M  ZZM  23 5
M  ZZI  23 1
M  ZZM  24 5
M  ZZI  24 1
M  ZZM  25 28
M  ZZI  25 11
M  ZZM  26 5
M  ZZI  26 1
M  ZZM  27 5
M  ZZI  27 1
M  ZZM  28 5
M  ZZI  28 1
M  ZZM  29 5
M  ZZI  29 1
M  END
> <IX>
1

> <NAME>
Cereblon_4XUF_3.pdb

> <Score>
-14.727669

> <Natom>
29

> <Nflex>
1

> <Hbond>
-0.485591

> <Hphob>
-3.307848

> <VwInt>
-22.856529

> <Dsolv>
11.38468

> <SolEl>
2.959297

> <Eintl>
0.803362

> <RecConf>
ND

> <projPath>
Cereblon_maps/

> <NAME_>
Cereblon_4XUF_3.pdb

$$$$
