Cereblon_6YBK_9.pdb
  MOLSOFT 04032206303D

 31 33  0  0  1  0  0  0  0  0999 V2000
   78.8183   41.6805   43.8072 N   0  0  0  0  0  0  0  0  0  0  0  0
   78.8983   42.4332   42.6260 C   0  0  0  0  0  0  0  0  0  0  0  0
   78.0953   42.1620   41.5309 C   0  0  0  0  0  0  0  0  0  0  0  0
   77.1744   41.0509   41.3263 C   0  0  0  0  0  0  0  0  0  0  0  0
   76.9933   40.1702   42.1540 O   0  0  0  0  0  0  0  0  0  0  0  0
   76.6375   41.2142   40.0648 N   0  0  0  0  0  0  0  0  0  0  0  0
   77.1601   42.3327   39.4476 C   0  0  0  0  0  0  0  0  0  0  0  0
   76.9500   42.7506   38.3163 O   0  0  0  0  0  0  0  0  0  0  0  0
   78.0921   42.9296   40.4055 C   0  0  0  0  0  0  0  0  0  0  0  0
   78.9052   44.0376   40.2818 C   0  0  0  0  0  0  0  0  0  0  0  0
   79.7265   44.3362   41.3632 C   0  0  0  0  0  0  0  0  0  0  0  0
   79.7137   43.5561   42.5212 C   0  0  0  0  0  0  0  0  0  0  0  0
   75.6189   40.3753   39.4294 C   0  0  2  0  0  0  0  0  0  0  0  0
   74.2476   40.9549   39.7315 C   0  0  0  0  0  0  0  0  0  0  0  0
   74.0779   42.1343   39.9921 O   0  0  0  0  0  0  0  0  0  0  0  0
   73.1863   40.0913   39.6098 N   0  0  0  0  0  0  0  0  0  0  0  0
   73.2111   38.7537   39.2958 C   0  0  0  0  0  0  0  0  0  0  0  0
   72.1856   38.1035   39.1762 O   0  0  0  0  0  0  0  0  0  0  0  0
   74.5751   38.1503   39.0570 C   0  0  0  0  0  0  0  0  0  0  0  0
   75.6508   38.9017   39.8215 C   0  0  0  0  0  0  0  0  0  0  0  0
   79.5361   41.7804   44.5219 H   0  0  0  0  0  0  0  0  0  0  0  0
   78.2781   40.8137   43.7934 H   0  0  0  0  0  0  0  0  0  0  0  0
   78.8985   44.6428   39.3830 H   0  0  0  0  0  0  0  0  0  0  0  0
   80.3796   45.2004   41.3142 H   0  0  0  0  0  0  0  0  0  0  0  0
   80.3514   43.8351   43.3545 H   0  0  0  0  0  0  0  0  0  0  0  0
   75.7542   40.4723   38.3510 H   0  0  0  0  0  0  0  0  0  0  0  0
   72.2706   40.4944   39.7649 H   0  0  0  0  0  0  0  0  0  0  0  0
   74.5555   37.1046   39.3801 H   0  0  0  0  0  0  0  0  0  0  0  0
   74.7698   38.1684   37.9802 H   0  0  0  0  0  0  0  0  0  0  0  0
   75.4639   38.7766   40.8920 H   0  0  0  0  0  0  0  0  0  0  0  0
   76.6361   38.4707   39.6168 H   0  0  0  0  0  0  0  0  0  0  0  0
  1  2  1  0  0  0  0
  1 21  1  0  0  0  0
  1 22  1  0  0  0  0
  2  3  1  0  0  0  0
  2 12  2  0  0  0  0
  3  9  2  0  0  0  0
  3  4  1  0  0  0  0
  4  5  2  0  0  0  0
  4  6  1  0  0  0  0
  6  7  1  0  0  0  0
 13  6  1  0  0  0  0
  7  8  2  0  0  0  0
  7  9  1  0  0  0  0
  9 10  1  0  0  0  0
 10 23  1  0  0  0  0
 10 11  2  0  0  0  0
 11 12  1  0  0  0  0
 11 24  1  0  0  0  0
 12 25  1  0  0  0  0
 13 26  1  0  0  0  0
 13 14  1  0  0  0  0
 13 20  1  0  0  0  0
 14 15  2  0  0  0  0
 14 16  1  0  0  0  0
 16 27  1  0  0  0  0
 16 17  1  0  0  0  0
 17 18  2  0  0  0  0
 17 19  1  0  0  0  0
 19 28  1  0  0  0  0
 19 29  1  0  0  0  0
 19 20  1  0  0  0  0
 20 30  1  0  0  0  0
 20 31  1  0  0  0  0
M  ZZC   1 n1
M  ZZC   2 c1
M  ZZC   3 c2
M  ZZC   4 c3
M  ZZC   5 o1
M  ZZC   6 n2
M  ZZC   7 c4
M  ZZC   8 o2
M  ZZC   9 c5
M  ZZC  10 c6
M  ZZC  11 c7
M  ZZC  12 c8
M  ZZC  13 c9
M  ZZC  14 c10
M  ZZC  15 o3
M  ZZC  16 n3
M  ZZC  17 c11
M  ZZC  18 o4
M  ZZC  19 c12
M  ZZC  20 c13
M  ZZC  21 h11
M  ZZC  22 h12
M  ZZC  23 h61
M  ZZC  24 h71
M  ZZC  25 h81
M  ZZC  26 h91
M  ZZC  27 h31
M  ZZC  28 h121
M  ZZC  29 h122
M  ZZC  30 h131
M  ZZC  31 h132
M  ZZM   1 40
M  ZZI   1 224
M  ZZM   2 37
M  ZZI   2 124
M  ZZM   3 37
M  ZZI   3 124
M  ZZM   4 3
M  ZZI   4 121
M  ZZM   5 7
M  ZZI   5 81
M  ZZM   6 10
M  ZZI   6 192
M  ZZM   7 3
M  ZZI   7 121
M  ZZM   8 7
M  ZZI   8 81
M  ZZM   9 37
M  ZZI   9 124
M  ZZM  10 37
M  ZZI  10 125
M  ZZM  11 37
M  ZZI  11 125
M  ZZM  12 37
M  ZZI  12 125
M  ZZM  13 1
M  ZZI  13 113
M  ZZM  14 3
M  ZZI  14 121
M  ZZM  15 7
M  ZZI  15 81
M  ZZM  16 10
M  ZZI  16 191
M  ZZM  17 3
M  ZZI  17 121
M  ZZM  18 7
M  ZZI  18 81
M  ZZM  19 1
M  ZZI  19 112
M  ZZM  20 1
M  ZZI  20 112
M  ZZM  21 28
M  ZZI  21 11
M  ZZM  22 28
M  ZZI  22 11
M  ZZM  23 5
M  ZZI  23 1
M  ZZM  24 5
M  ZZI  24 1
M  ZZM  25 5
M  ZZI  25 1
M  ZZM  26 5
M  ZZI  26 1
M  ZZM  27 28
M  ZZI  27 11
M  ZZM  28 5
M  ZZI  28 1
M  ZZM  29 5
M  ZZI  29 1
M  ZZM  30 5
M  ZZI  30 1
M  ZZM  31 5
M  ZZI  31 1
M  END
> <IX>
1

> <NAME>
Cereblon_6YBK_9.pdb

> <Score>
-18.710248

> <Natom>
31

> <Nflex>
1

> <Hbond>
-3.653292

> <Hphob>
-3.540835

> <VwInt>
-24.355247

> <Dsolv>
15.050036

> <SolEl>
6.597649

> <Eintl>
1.697019

> <RecConf>
ND

> <projPath>
Cereblon_maps/

> <NAME_>
Cereblon_6YBK_9.pdb

$$$$
