Cereblon_2HYY_13.pdb
  MOLSOFT 04032206203D

 31 33  0  0  1  0  0  0  0  0999 V2000
   78.7163   41.7132   43.8975 N   0  0  0  0  0  0  0  0  0  0  0  0
   78.7900   42.4883   42.7293 C   0  0  0  0  0  0  0  0  0  0  0  0
   78.0690   42.1700   41.5906 C   0  0  0  0  0  0  0  0  0  0  0  0
   77.1596   41.0540   41.3668 C   0  0  0  0  0  0  0  0  0  0  0  0
   76.9498   40.1862   42.2010 O   0  0  0  0  0  0  0  0  0  0  0  0
   76.6589   41.2044   40.0892 N   0  0  0  0  0  0  0  0  0  0  0  0
   77.1970   42.3182   39.4779 C   0  0  0  0  0  0  0  0  0  0  0  0
   76.9994   42.7374   38.3448 O   0  0  0  0  0  0  0  0  0  0  0  0
   78.1102   42.9177   40.4527 C   0  0  0  0  0  0  0  0  0  0  0  0
   78.9319   44.0205   40.3408 C   0  0  0  0  0  0  0  0  0  0  0  0
   79.7205   44.3282   41.4440 C   0  0  0  0  0  0  0  0  0  0  0  0
   79.6520   43.5754   42.6184 C   0  0  0  0  0  0  0  0  0  0  0  0
   75.6461   40.3691   39.4400 C   0  0  2  0  0  0  0  0  0  0  0  0
   74.2739   40.9566   39.7251 C   0  0  0  0  0  0  0  0  0  0  0  0
   74.1073   42.1382   39.9786 O   0  0  0  0  0  0  0  0  0  0  0  0
   73.2097   40.0975   39.5999 N   0  0  0  0  0  0  0  0  0  0  0  0
   73.2305   38.7583   39.2943 C   0  0  0  0  0  0  0  0  0  0  0  0
   72.2028   38.1116   39.1747 O   0  0  0  0  0  0  0  0  0  0  0  0
   74.5928   38.1491   39.0634 C   0  0  0  0  0  0  0  0  0  0  0  0
   75.6680   38.8957   39.8336 C   0  0  0  0  0  0  0  0  0  0  0  0
   78.9790   42.1268   44.7911 H   0  0  0  0  0  0  0  0  0  0  0  0
   78.0619   40.9291   43.9143 H   0  0  0  0  0  0  0  0  0  0  0  0
   78.9622   44.6102   39.4323 H   0  0  0  0  0  0  0  0  0  0  0  0
   80.3950   45.1759   41.3971 H   0  0  0  0  0  0  0  0  0  0  0  0
   80.2816   43.8478   43.4600 H   0  0  0  0  0  0  0  0  0  0  0  0
   75.7957   40.4658   38.3634 H   0  0  0  0  0  0  0  0  0  0  0  0
   72.2947   40.5056   39.7464 H   0  0  0  0  0  0  0  0  0  0  0  0
   74.5669   37.1036   39.3866 H   0  0  0  0  0  0  0  0  0  0  0  0
   74.7914   38.1659   37.9874 H   0  0  0  0  0  0  0  0  0  0  0  0
   75.4743   38.7731   40.9030 H   0  0  0  0  0  0  0  0  0  0  0  0
   76.6524   38.4595   39.6356 H   0  0  0  0  0  0  0  0  0  0  0  0
  1  2  1  0  0  0  0
  1 21  1  0  0  0  0
  1 22  1  0  0  0  0
  2  3  1  0  0  0  0
  2 12  2  0  0  0  0
  3  9  2  0  0  0  0
  3  4  1  0  0  0  0
  4  5  2  0  0  0  0
  4  6  1  0  0  0  0
  6  7  1  0  0  0  0
 13  6  1  0  0  0  0
  7  8  2  0  0  0  0
  7  9  1  0  0  0  0
  9 10  1  0  0  0  0
 10 23  1  0  0  0  0
 10 11  2  0  0  0  0
 11 12  1  0  0  0  0
 11 24  1  0  0  0  0
 12 25  1  0  0  0  0
 13 26  1  0  0  0  0
 13 14  1  0  0  0  0
 13 20  1  0  0  0  0
 14 15  2  0  0  0  0
 14 16  1  0  0  0  0
 16 27  1  0  0  0  0
 16 17  1  0  0  0  0
 17 18  2  0  0  0  0
 17 19  1  0  0  0  0
 19 28  1  0  0  0  0
 19 29  1  0  0  0  0
 19 20  1  0  0  0  0
 20 30  1  0  0  0  0
 20 31  1  0  0  0  0
M  ZZC   1 n1
M  ZZC   2 c1
M  ZZC   3 c2
M  ZZC   4 c3
M  ZZC   5 o1
M  ZZC   6 n2
M  ZZC   7 c4
M  ZZC   8 o2
M  ZZC   9 c5
M  ZZC  10 c6
M  ZZC  11 c7
M  ZZC  12 c8
M  ZZC  13 c9
M  ZZC  14 c10
M  ZZC  15 o3
M  ZZC  16 n3
M  ZZC  17 c11
M  ZZC  18 o4
M  ZZC  19 c12
M  ZZC  20 c13
M  ZZC  21 h11
M  ZZC  22 h12
M  ZZC  23 h61
M  ZZC  24 h71
M  ZZC  25 h81
M  ZZC  26 h91
M  ZZC  27 h31
M  ZZC  28 h121
M  ZZC  29 h122
M  ZZC  30 h131
M  ZZC  31 h132
M  ZZM   1 40
M  ZZI   1 224
M  ZZM   2 37
M  ZZI   2 124
M  ZZM   3 37
M  ZZI   3 124
M  ZZM   4 3
M  ZZI   4 121
M  ZZM   5 7
M  ZZI   5 81
M  ZZM   6 10
M  ZZI   6 192
M  ZZM   7 3
M  ZZI   7 121
M  ZZM   8 7
M  ZZI   8 81
M  ZZM   9 37
M  ZZI   9 124
M  ZZM  10 37
M  ZZI  10 125
M  ZZM  11 37
M  ZZI  11 125
M  ZZM  12 37
M  ZZI  12 125
M  ZZM  13 1
M  ZZI  13 113
M  ZZM  14 3
M  ZZI  14 121
M  ZZM  15 7
M  ZZI  15 81
M  ZZM  16 10
M  ZZI  16 191
M  ZZM  17 3
M  ZZI  17 121
M  ZZM  18 7
M  ZZI  18 81
M  ZZM  19 1
M  ZZI  19 112
M  ZZM  20 1
M  ZZI  20 112
M  ZZM  21 28
M  ZZI  21 11
M  ZZM  22 28
M  ZZI  22 11
M  ZZM  23 5
M  ZZI  23 1
M  ZZM  24 5
M  ZZI  24 1
M  ZZM  25 5
M  ZZI  25 1
M  ZZM  26 5
M  ZZI  26 1
M  ZZM  27 28
M  ZZI  27 11
M  ZZM  28 5
M  ZZI  28 1
M  ZZM  29 5
M  ZZI  29 1
M  ZZM  30 5
M  ZZI  30 1
M  ZZM  31 5
M  ZZI  31 1
M  END
> <IX>
1

> <NAME>
Cereblon_2HYY_13.pdb

> <Score>
-21.687876

> <Natom>
31

> <Nflex>
1

> <Hbond>
-4.856181

> <Hphob>
-3.591372

> <VwInt>
-24.095341

> <Dsolv>
15.187692

> <SolEl>
5.992038

> <Eintl>
1.923849

> <RecConf>
ND

> <projPath>
Cereblon_maps/

> <NAME_>
Cereblon_2HYY_13.pdb

$$$$
