Cereblon_6GFZ_3.pdb
  MOLSOFT 04032206283D

 31 33  0  0  1  0  0  0  0  0999 V2000
   78.0643   40.6318   42.6477 N   0  0  0  0  0  0  0  0  0  0  0  0
   78.1180   41.7209   41.7626 C   0  0  0  0  0  0  0  0  0  0  0  0
   77.2914   41.8150   40.6518 C   0  0  0  0  0  0  0  0  0  0  0  0
   76.2234   40.9258   40.2006 C   0  0  0  0  0  0  0  0  0  0  0  0
   75.9756   39.8381   40.7017 O   0  0  0  0  0  0  0  0  0  0  0  0
   75.6020   41.5567   39.1386 N   0  0  0  0  0  0  0  0  0  0  0  0
   76.3292   42.6657   38.7559 C   0  0  0  0  0  0  0  0  0  0  0  0
   76.2267   43.3658   37.7597 O   0  0  0  0  0  0  0  0  0  0  0  0
   77.3665   42.8501   39.7705 C   0  0  0  0  0  0  0  0  0  0  0  0
   78.3078   43.8549   39.8986 C   0  0  0  0  0  0  0  0  0  0  0  0
   79.1755   43.7696   40.9797 C   0  0  0  0  0  0  0  0  0  0  0  0
   79.0782   42.7217   41.8967 C   0  0  0  0  0  0  0  0  0  0  0  0
   74.3535   41.0440   38.5454 C   0  0  1  0  0  0  0  0  0  0  0  0
   73.2190   41.3222   39.5224 C   0  0  0  0  0  0  0  0  0  0  0  0
   73.4004   41.6119   40.6926 O   0  0  0  0  0  0  0  0  0  0  0  0
   71.9472   41.1741   39.0295 N   0  0  0  0  0  0  0  0  0  0  0  0
   71.5648   40.9307   37.7360 C   0  0  0  0  0  0  0  0  0  0  0  0
   70.4015   40.6856   37.4554 O   0  0  0  0  0  0  0  0  0  0  0  0
   72.6774   40.9286   36.7079 C   0  0  0  0  0  0  0  0  0  0  0  0
   73.9180   41.6549   37.2129 C   0  0  0  0  0  0  0  0  0  0  0  0
   78.6433   40.6198   43.4862 H   0  0  0  0  0  0  0  0  0  0  0  0
   77.2671   39.9960   42.5921 H   0  0  0  0  0  0  0  0  0  0  0  0
   78.3661   44.6728   39.1889 H   0  0  0  0  0  0  0  0  0  0  0  0
   79.9332   44.5343   41.1193 H   0  0  0  0  0  0  0  0  0  0  0  0
   79.7684   42.6910   42.7339 H   0  0  0  0  0  0  0  0  0  0  0  0
   74.4510   39.9547   38.4668 H   0  0  0  0  0  0  0  0  0  0  0  0
   71.1989   41.2728   39.7032 H   0  0  0  0  0  0  0  0  0  0  0  0
   72.9127   39.8875   36.4630 H   0  0  0  0  0  0  0  0  0  0  0  0
   72.3111   41.4161   35.7986 H   0  0  0  0  0  0  0  0  0  0  0  0
   74.7090   41.5959   36.4640 H   0  0  0  0  0  0  0  0  0  0  0  0
   73.6881   42.7200   37.3357 H   0  0  0  0  0  0  0  0  0  0  0  0
  1  2  1  0  0  0  0
  1 21  1  0  0  0  0
  1 22  1  0  0  0  0
  2  3  1  0  0  0  0
  2 12  2  0  0  0  0
  3  9  2  0  0  0  0
  3  4  1  0  0  0  0
  4  5  2  0  0  0  0
  4  6  1  0  0  0  0
  6  7  1  0  0  0  0
 13  6  1  0  0  0  0
  7  8  2  0  0  0  0
  7  9  1  0  0  0  0
  9 10  1  0  0  0  0
 10 23  1  0  0  0  0
 10 11  2  0  0  0  0
 11 12  1  0  0  0  0
 11 24  1  0  0  0  0
 12 25  1  0  0  0  0
 13 26  1  0  0  0  0
 13 14  1  0  0  0  0
 13 20  1  0  0  0  0
 14 15  2  0  0  0  0
 14 16  1  0  0  0  0
 16 27  1  0  0  0  0
 16 17  1  0  0  0  0
 17 18  2  0  0  0  0
 17 19  1  0  0  0  0
 19 28  1  0  0  0  0
 19 29  1  0  0  0  0
 19 20  1  0  0  0  0
 20 30  1  0  0  0  0
 20 31  1  0  0  0  0
M  ZZC   1 n1
M  ZZC   2 c1
M  ZZC   3 c2
M  ZZC   4 c3
M  ZZC   5 o1
M  ZZC   6 n2
M  ZZC   7 c4
M  ZZC   8 o2
M  ZZC   9 c5
M  ZZC  10 c6
M  ZZC  11 c7
M  ZZC  12 c8
M  ZZC  13 c9
M  ZZC  14 c10
M  ZZC  15 o3
M  ZZC  16 n3
M  ZZC  17 c11
M  ZZC  18 o4
M  ZZC  19 c12
M  ZZC  20 c13
M  ZZC  21 h11
M  ZZC  22 h12
M  ZZC  23 h61
M  ZZC  24 h71
M  ZZC  25 h81
M  ZZC  26 h91
M  ZZC  27 h31
M  ZZC  28 h121
M  ZZC  29 h122
M  ZZC  30 h131
M  ZZC  31 h132
M  ZZM   1 40
M  ZZI   1 224
M  ZZM   2 37
M  ZZI   2 124
M  ZZM   3 37
M  ZZI   3 124
M  ZZM   4 3
M  ZZI   4 121
M  ZZM   5 7
M  ZZI   5 81
M  ZZM   6 10
M  ZZI   6 192
M  ZZM   7 3
M  ZZI   7 121
M  ZZM   8 7
M  ZZI   8 81
M  ZZM   9 37
M  ZZI   9 124
M  ZZM  10 37
M  ZZI  10 125
M  ZZM  11 37
M  ZZI  11 125
M  ZZM  12 37
M  ZZI  12 125
M  ZZM  13 1
M  ZZI  13 113
M  ZZM  14 3
M  ZZI  14 121
M  ZZM  15 7
M  ZZI  15 81
M  ZZM  16 10
M  ZZI  16 191
M  ZZM  17 3
M  ZZI  17 121
M  ZZM  18 7
M  ZZI  18 81
M  ZZM  19 1
M  ZZI  19 112
M  ZZM  20 1
M  ZZI  20 112
M  ZZM  21 28
M  ZZI  21 11
M  ZZM  22 28
M  ZZI  22 11
M  ZZM  23 5
M  ZZI  23 1
M  ZZM  24 5
M  ZZI  24 1
M  ZZM  25 5
M  ZZI  25 1
M  ZZM  26 5
M  ZZI  26 1
M  ZZM  27 28
M  ZZI  27 11
M  ZZM  28 5
M  ZZI  28 1
M  ZZM  29 5
M  ZZI  29 1
M  ZZM  30 5
M  ZZI  30 1
M  ZZM  31 5
M  ZZI  31 1
M  END
> <IX>
1

> <NAME>
Cereblon_6GFZ_3.pdb

> <Score>
-14.587459

> <Natom>
31

> <Nflex>
1

> <Hbond>
-2.759695

> <Hphob>
-3.704905

> <VwInt>
-26.932985

> <Dsolv>
17.254559

> <SolEl>
7.150822

> <Eintl>
5.915633

> <RecConf>
ND

> <projPath>
Cereblon_maps/

> <NAME_>
Cereblon_6GFZ_3.pdb

$$$$
