Cereblon_2GQG_34.pdb
  MOLSOFT 04032206203D

 31 33  0  0  1  0  0  0  0  0999 V2000
   78.8158   41.6789   43.8076 N   0  0  0  0  0  0  0  0  0  0  0  0
   78.8978   42.4319   42.6264 C   0  0  0  0  0  0  0  0  0  0  0  0
   78.0955   42.1613   41.5309 C   0  0  0  0  0  0  0  0  0  0  0  0
   77.1736   41.0508   41.3266 C   0  0  0  0  0  0  0  0  0  0  0  0
   76.9898   40.1717   42.1554 O   0  0  0  0  0  0  0  0  0  0  0  0
   76.6377   41.2144   40.0645 N   0  0  0  0  0  0  0  0  0  0  0  0
   77.1614   42.3324   39.4475 C   0  0  0  0  0  0  0  0  0  0  0  0
   76.9508   42.7513   38.3167 O   0  0  0  0  0  0  0  0  0  0  0  0
   78.0933   42.9287   40.4058 C   0  0  0  0  0  0  0  0  0  0  0  0
   78.9058   44.0372   40.2831 C   0  0  0  0  0  0  0  0  0  0  0  0
   79.7248   44.3367   41.3662 C   0  0  0  0  0  0  0  0  0  0  0  0
   79.7117   43.5559   42.5235 C   0  0  0  0  0  0  0  0  0  0  0  0
   75.6193   40.3760   39.4287 C   0  0  2  0  0  0  0  0  0  0  0  0
   74.2483   40.9567   39.7292 C   0  0  0  0  0  0  0  0  0  0  0  0
   74.0792   42.1361   39.9903 O   0  0  0  0  0  0  0  0  0  0  0  0
   73.1863   40.0943   39.6053 N   0  0  0  0  0  0  0  0  0  0  0  0
   73.2102   38.7570   39.2905 C   0  0  0  0  0  0  0  0  0  0  0  0
   72.1843   38.1079   39.1684 O   0  0  0  0  0  0  0  0  0  0  0  0
   74.5744   38.1526   39.0539 C   0  0  0  0  0  0  0  0  0  0  0  0
   75.6489   38.9023   39.8220 C   0  0  0  0  0  0  0  0  0  0  0  0
   79.5331   41.7786   44.5229 H   0  0  0  0  0  0  0  0  0  0  0  0
   78.2743   40.8129   43.7942 H   0  0  0  0  0  0  0  0  0  0  0  0
   78.9008   44.6425   39.3843 H   0  0  0  0  0  0  0  0  0  0  0  0
   80.3763   45.2022   41.3189 H   0  0  0  0  0  0  0  0  0  0  0  0
   80.3472   43.8357   43.3581 H   0  0  0  0  0  0  0  0  0  0  0  0
   75.7563   40.4729   38.3504 H   0  0  0  0  0  0  0  0  0  0  0  0
   72.2707   40.4983   39.7594 H   0  0  0  0  0  0  0  0  0  0  0  0
   74.5533   37.1066   39.3757 H   0  0  0  0  0  0  0  0  0  0  0  0
   74.7715   38.1718   37.9775 H   0  0  0  0  0  0  0  0  0  0  0  0
   75.4584   38.7782   40.8920 H   0  0  0  0  0  0  0  0  0  0  0  0
   76.6341   38.4695   39.6206 H   0  0  0  0  0  0  0  0  0  0  0  0
  1  2  1  0  0  0  0
  1 21  1  0  0  0  0
  1 22  1  0  0  0  0
  2  3  1  0  0  0  0
  2 12  2  0  0  0  0
  3  9  2  0  0  0  0
  3  4  1  0  0  0  0
  4  5  2  0  0  0  0
  4  6  1  0  0  0  0
  6  7  1  0  0  0  0
 13  6  1  0  0  0  0
  7  8  2  0  0  0  0
  7  9  1  0  0  0  0
  9 10  1  0  0  0  0
 10 23  1  0  0  0  0
 10 11  2  0  0  0  0
 11 12  1  0  0  0  0
 11 24  1  0  0  0  0
 12 25  1  0  0  0  0
 13 26  1  0  0  0  0
 13 14  1  0  0  0  0
 13 20  1  0  0  0  0
 14 15  2  0  0  0  0
 14 16  1  0  0  0  0
 16 27  1  0  0  0  0
 16 17  1  0  0  0  0
 17 18  2  0  0  0  0
 17 19  1  0  0  0  0
 19 28  1  0  0  0  0
 19 29  1  0  0  0  0
 19 20  1  0  0  0  0
 20 30  1  0  0  0  0
 20 31  1  0  0  0  0
M  ZZC   1 n1
M  ZZC   2 c1
M  ZZC   3 c2
M  ZZC   4 c3
M  ZZC   5 o1
M  ZZC   6 n2
M  ZZC   7 c4
M  ZZC   8 o2
M  ZZC   9 c5
M  ZZC  10 c6
M  ZZC  11 c7
M  ZZC  12 c8
M  ZZC  13 c9
M  ZZC  14 c10
M  ZZC  15 o3
M  ZZC  16 n3
M  ZZC  17 c11
M  ZZC  18 o4
M  ZZC  19 c12
M  ZZC  20 c13
M  ZZC  21 h11
M  ZZC  22 h12
M  ZZC  23 h61
M  ZZC  24 h71
M  ZZC  25 h81
M  ZZC  26 h91
M  ZZC  27 h31
M  ZZC  28 h121
M  ZZC  29 h122
M  ZZC  30 h131
M  ZZC  31 h132
M  ZZM   1 40
M  ZZI   1 224
M  ZZM   2 37
M  ZZI   2 124
M  ZZM   3 37
M  ZZI   3 124
M  ZZM   4 3
M  ZZI   4 121
M  ZZM   5 7
M  ZZI   5 81
M  ZZM   6 10
M  ZZI   6 192
M  ZZM   7 3
M  ZZI   7 121
M  ZZM   8 7
M  ZZI   8 81
M  ZZM   9 37
M  ZZI   9 124
M  ZZM  10 37
M  ZZI  10 125
M  ZZM  11 37
M  ZZI  11 125
M  ZZM  12 37
M  ZZI  12 125
M  ZZM  13 1
M  ZZI  13 113
M  ZZM  14 3
M  ZZI  14 121
M  ZZM  15 7
M  ZZI  15 81
M  ZZM  16 10
M  ZZI  16 191
M  ZZM  17 3
M  ZZI  17 121
M  ZZM  18 7
M  ZZI  18 81
M  ZZM  19 1
M  ZZI  19 112
M  ZZM  20 1
M  ZZI  20 112
M  ZZM  21 28
M  ZZI  21 11
M  ZZM  22 28
M  ZZI  22 11
M  ZZM  23 5
M  ZZI  23 1
M  ZZM  24 5
M  ZZI  24 1
M  ZZM  25 5
M  ZZI  25 1
M  ZZM  26 5
M  ZZI  26 1
M  ZZM  27 28
M  ZZI  27 11
M  ZZM  28 5
M  ZZI  28 1
M  ZZM  29 5
M  ZZI  29 1
M  ZZM  30 5
M  ZZI  30 1
M  ZZM  31 5
M  ZZI  31 1
M  END
> <IX>
1

> <NAME>
Cereblon_2GQG_34.pdb

> <Score>
-18.709008

> <Natom>
31

> <Nflex>
1

> <Hbond>
-3.672349

> <Hphob>
-3.570754

> <VwInt>
-24.312604

> <Dsolv>
15.179962

> <SolEl>
6.497557

> <Eintl>
1.689474

> <RecConf>
ND

> <projPath>
Cereblon_maps/

> <NAME_>
Cereblon_2GQG_34.pdb

$$$$
