Cereblon_3IK3_1.pdb
  MOLSOFT 04032206213D

 31 33  0  0  1  0  0  0  0  0999 V2000
   78.8141   41.6738   43.8072 N   0  0  0  0  0  0  0  0  0  0  0  0
   78.8933   42.4286   42.6269 C   0  0  0  0  0  0  0  0  0  0  0  0
   78.0910   42.1583   41.5315 C   0  0  0  0  0  0  0  0  0  0  0  0
   77.1706   41.0479   41.3251 C   0  0  0  0  0  0  0  0  0  0  0  0
   76.9895   40.1654   42.1508 O   0  0  0  0  0  0  0  0  0  0  0  0
   76.6329   41.2144   40.0642 N   0  0  0  0  0  0  0  0  0  0  0  0
   77.1570   42.3326   39.4485 C   0  0  0  0  0  0  0  0  0  0  0  0
   76.9485   42.7512   38.3172 O   0  0  0  0  0  0  0  0  0  0  0  0
   78.0880   42.9277   40.4076 C   0  0  0  0  0  0  0  0  0  0  0  0
   78.9018   44.0353   40.2848 C   0  0  0  0  0  0  0  0  0  0  0  0
   79.7228   44.3315   41.3659 C   0  0  0  0  0  0  0  0  0  0  0  0
   79.7098   43.5504   42.5230 C   0  0  0  0  0  0  0  0  0  0  0  0
   75.6157   40.3753   39.4267 C   0  0  2  0  0  0  0  0  0  0  0  0
   74.2436   40.9541   39.7266 C   0  0  0  0  0  0  0  0  0  0  0  0
   74.0731   42.1324   39.9909 O   0  0  0  0  0  0  0  0  0  0  0  0
   73.1830   40.0910   39.5985 N   0  0  0  0  0  0  0  0  0  0  0  0
   73.2090   38.7546   39.2813 C   0  0  0  0  0  0  0  0  0  0  0  0
   72.1841   38.1051   39.1548 O   0  0  0  0  0  0  0  0  0  0  0  0
   74.5737   38.1509   39.0485 C   0  0  0  0  0  0  0  0  0  0  0  0
   75.6463   38.9011   39.8176 C   0  0  0  0  0  0  0  0  0  0  0  0
   79.5355   41.7685   44.5191 H   0  0  0  0  0  0  0  0  0  0  0  0
   78.2671   40.8112   43.7955 H   0  0  0  0  0  0  0  0  0  0  0  0
   78.8965   44.6417   39.3868 H   0  0  0  0  0  0  0  0  0  0  0  0
   80.3760   45.1956   41.3176 H   0  0  0  0  0  0  0  0  0  0  0  0
   80.3479   43.8280   43.3565 H   0  0  0  0  0  0  0  0  0  0  0  0
   75.7536   40.4733   38.3487 H   0  0  0  0  0  0  0  0  0  0  0  0
   72.2668   40.4936   39.7521 H   0  0  0  0  0  0  0  0  0  0  0  0
   74.5525   37.1048   39.3702 H   0  0  0  0  0  0  0  0  0  0  0  0
   74.7732   38.1702   37.9725 H   0  0  0  0  0  0  0  0  0  0  0  0
   75.4553   38.7766   40.8873 H   0  0  0  0  0  0  0  0  0  0  0  0
   76.6322   38.4699   39.6158 H   0  0  0  0  0  0  0  0  0  0  0  0
  1  2  1  0  0  0  0
  1 21  1  0  0  0  0
  1 22  1  0  0  0  0
  2  3  1  0  0  0  0
  2 12  2  0  0  0  0
  3  9  2  0  0  0  0
  3  4  1  0  0  0  0
  4  5  2  0  0  0  0
  4  6  1  0  0  0  0
  6  7  1  0  0  0  0
 13  6  1  0  0  0  0
  7  8  2  0  0  0  0
  7  9  1  0  0  0  0
  9 10  1  0  0  0  0
 10 23  1  0  0  0  0
 10 11  2  0  0  0  0
 11 12  1  0  0  0  0
 11 24  1  0  0  0  0
 12 25  1  0  0  0  0
 13 26  1  0  0  0  0
 13 14  1  0  0  0  0
 13 20  1  0  0  0  0
 14 15  2  0  0  0  0
 14 16  1  0  0  0  0
 16 27  1  0  0  0  0
 16 17  1  0  0  0  0
 17 18  2  0  0  0  0
 17 19  1  0  0  0  0
 19 28  1  0  0  0  0
 19 29  1  0  0  0  0
 19 20  1  0  0  0  0
 20 30  1  0  0  0  0
 20 31  1  0  0  0  0
M  ZZC   1 n1
M  ZZC   2 c1
M  ZZC   3 c2
M  ZZC   4 c3
M  ZZC   5 o1
M  ZZC   6 n2
M  ZZC   7 c4
M  ZZC   8 o2
M  ZZC   9 c5
M  ZZC  10 c6
M  ZZC  11 c7
M  ZZC  12 c8
M  ZZC  13 c9
M  ZZC  14 c10
M  ZZC  15 o3
M  ZZC  16 n3
M  ZZC  17 c11
M  ZZC  18 o4
M  ZZC  19 c12
M  ZZC  20 c13
M  ZZC  21 h11
M  ZZC  22 h12
M  ZZC  23 h61
M  ZZC  24 h71
M  ZZC  25 h81
M  ZZC  26 h91
M  ZZC  27 h31
M  ZZC  28 h121
M  ZZC  29 h122
M  ZZC  30 h131
M  ZZC  31 h132
M  ZZM   1 40
M  ZZI   1 224
M  ZZM   2 37
M  ZZI   2 124
M  ZZM   3 37
M  ZZI   3 124
M  ZZM   4 3
M  ZZI   4 121
M  ZZM   5 7
M  ZZI   5 81
M  ZZM   6 10
M  ZZI   6 192
M  ZZM   7 3
M  ZZI   7 121
M  ZZM   8 7
M  ZZI   8 81
M  ZZM   9 37
M  ZZI   9 124
M  ZZM  10 37
M  ZZI  10 125
M  ZZM  11 37
M  ZZI  11 125
M  ZZM  12 37
M  ZZI  12 125
M  ZZM  13 1
M  ZZI  13 113
M  ZZM  14 3
M  ZZI  14 121
M  ZZM  15 7
M  ZZI  15 81
M  ZZM  16 10
M  ZZI  16 191
M  ZZM  17 3
M  ZZI  17 121
M  ZZM  18 7
M  ZZI  18 81
M  ZZM  19 1
M  ZZI  19 112
M  ZZM  20 1
M  ZZI  20 112
M  ZZM  21 28
M  ZZI  21 11
M  ZZM  22 28
M  ZZI  22 11
M  ZZM  23 5
M  ZZI  23 1
M  ZZM  24 5
M  ZZI  24 1
M  ZZM  25 5
M  ZZI  25 1
M  ZZM  26 5
M  ZZI  26 1
M  ZZM  27 28
M  ZZI  27 11
M  ZZM  28 5
M  ZZI  28 1
M  ZZM  29 5
M  ZZI  29 1
M  ZZM  30 5
M  ZZI  30 1
M  ZZM  31 5
M  ZZI  31 1
M  END
> <IX>
1

> <NAME>
Cereblon_3IK3_1.pdb

> <Score>
-18.875484

> <Natom>
31

> <Nflex>
1

> <Hbond>
-3.670243

> <Hphob>
-3.526097

> <VwInt>
-24.300127

> <Dsolv>
15.238887

> <SolEl>
6.065193

> <Eintl>
1.734417

> <RecConf>
ND

> <projPath>
Cereblon_maps/

> <NAME_>
Cereblon_3IK3_1.pdb

$$$$
