Cereblon_5P9J_23.pdb
  MOLSOFT 04032206263D

 30 32  0  0  1  0  0  0  0  0999 V2000
   75.2494   39.9343   40.0896 C   0  0  0  0  0  0  0  0  0  0  0  0
   74.5227   40.5326   39.0749 C   0  0  0  0  0  0  0  0  0  0  0  0
   74.9275   41.7284   38.5597 C   0  0  0  0  0  0  0  0  0  0  0  0
   74.0111   42.0961   37.4802 C   0  0  0  0  0  0  0  0  0  0  0  0
   74.1732   43.0961   36.8010 O   0  0  0  0  0  0  0  0  0  0  0  0
   73.0417   41.1088   37.4111 N   0  0  0  0  0  0  0  0  0  0  0  0
   71.9249   40.9998   36.4513 C   0  0  1  0  0  0  0  0  0  0  0  0
   70.5635   41.0253   37.1464 C   0  0  0  0  0  0  0  0  0  0  0  0
   70.1742   40.1453   37.8992 O   0  0  0  0  0  0  0  0  0  0  0  0
   69.7533   42.1054   36.9067 N   0  0  0  0  0  0  0  0  0  0  0  0
   70.0097   43.2288   36.1822 C   0  0  0  0  0  0  0  0  0  0  0  0
   69.1679   44.1039   36.0926 O   0  0  0  0  0  0  0  0  0  0  0  0
   71.3822   43.3375   35.5898 C   0  0  0  0  0  0  0  0  0  0  0  0
   71.9375   41.9590   35.2561 C   0  0  0  0  0  0  0  0  0  0  0  0
   73.2835   40.0681   38.4010 C   0  0  0  0  0  0  0  0  0  0  0  0
   76.0360   42.4167   39.0171 C   0  0  0  0  0  0  0  0  0  0  0  0
   76.7505   41.8366   40.0534 C   0  0  0  0  0  0  0  0  0  0  0  0
   76.3637   40.6058   40.5787 C   0  0  0  0  0  0  0  0  0  0  0  0
   74.9553   38.9726   40.4983 H   0  0  0  0  0  0  0  0  0  0  0  0
   72.0229   39.9933   36.0293 H   0  0  0  0  0  0  0  0  0  0  0  0
   68.8266   42.0717   37.3145 H   0  0  0  0  0  0  0  0  0  0  0  0
   71.3072   43.9347   34.6775 H   0  0  0  0  0  0  0  0  0  0  0  0
   72.0043   43.8861   36.2993 H   0  0  0  0  0  0  0  0  0  0  0  0
   71.3085   41.5314   34.4664 H   0  0  0  0  0  0  0  0  0  0  0  0
   72.9389   42.0438   34.8260 H   0  0  0  0  0  0  0  0  0  0  0  0
   73.4330   39.1078   37.8952 H   0  0  0  0  0  0  0  0  0  0  0  0
   72.4487   40.0220   39.1081 H   0  0  0  0  0  0  0  0  0  0  0  0
   76.3378   43.3669   38.5884 H   0  0  0  0  0  0  0  0  0  0  0  0
   77.6231   42.3438   40.4537 H   0  0  0  0  0  0  0  0  0  0  0  0
   76.9443   40.1646   41.3830 H   0  0  0  0  0  0  0  0  0  0  0  0
  1 19  1  0  0  0  0
  1 18  2  0  0  0  0
  1  2  1  0  0  0  0
  2  3  2  0  0  0  0
  2 15  1  0  0  0  0
  3 16  1  0  0  0  0
  3  4  1  0  0  0  0
  4  6  1  0  0  0  0
  4  5  2  0  0  0  0
  6 15  1  0  0  0  0
  7  6  1  0  0  0  0
  7 20  1  0  0  0  0
  7  8  1  0  0  0  0
  7 14  1  0  0  0  0
  8  9  2  0  0  0  0
  8 10  1  0  0  0  0
 10 21  1  0  0  0  0
 10 11  1  0  0  0  0
 11 12  2  0  0  0  0
 11 13  1  0  0  0  0
 13 22  1  0  0  0  0
 13 23  1  0  0  0  0
 13 14  1  0  0  0  0
 14 24  1  0  0  0  0
 14 25  1  0  0  0  0
 15 26  1  0  0  0  0
 15 27  1  0  0  0  0
 16 17  2  0  0  0  0
 16 28  1  0  0  0  0
 17 18  1  0  0  0  0
 17 29  1  0  0  0  0
 18 30  1  0  0  0  0
M  ZZC   1 c1
M  ZZC   2 c2
M  ZZC   3 c3
M  ZZC   4 c4
M  ZZC   5 o1
M  ZZC   6 n1
M  ZZC   7 c5
M  ZZC   8 c6
M  ZZC   9 o2
M  ZZC  10 n2
M  ZZC  11 c7
M  ZZC  12 o3
M  ZZC  13 c8
M  ZZC  14 c9
M  ZZC  15 c10
M  ZZC  16 c11
M  ZZC  17 c12
M  ZZC  18 c13
M  ZZC  19 h11
M  ZZC  20 h51
M  ZZC  21 h21
M  ZZC  22 h81
M  ZZC  23 h82
M  ZZC  24 h91
M  ZZC  25 h92
M  ZZC  26 h101
M  ZZC  27 h102
M  ZZC  28 h111
M  ZZC  29 h121
M  ZZC  30 h131
M  ZZM   1 37
M  ZZI   1 125
M  ZZM   2 37
M  ZZI   2 124
M  ZZM   3 37
M  ZZI   3 124
M  ZZM   4 3
M  ZZI   4 121
M  ZZM   5 7
M  ZZI   5 81
M  ZZM   6 10
M  ZZI   6 192
M  ZZM   7 1
M  ZZI   7 113
M  ZZM   8 3
M  ZZI   8 121
M  ZZM   9 7
M  ZZI   9 81
M  ZZM  10 10
M  ZZI  10 191
M  ZZM  11 3
M  ZZI  11 121
M  ZZM  12 7
M  ZZI  12 81
M  ZZM  13 1
M  ZZI  13 112
M  ZZM  14 1
M  ZZI  14 112
M  ZZM  15 1
M  ZZI  15 112
M  ZZM  16 37
M  ZZI  16 125
M  ZZM  17 37
M  ZZI  17 125
M  ZZM  18 37
M  ZZI  18 125
M  ZZM  19 5
M  ZZI  19 1
M  ZZM  20 5
M  ZZI  20 1
M  ZZM  21 28
M  ZZI  21 11
M  ZZM  22 5
M  ZZI  22 1
M  ZZM  23 5
M  ZZI  23 1
M  ZZM  24 5
M  ZZI  24 1
M  ZZM  25 5
M  ZZI  25 1
M  ZZM  26 5
M  ZZI  26 1
M  ZZM  27 5
M  ZZI  27 1
M  ZZM  28 5
M  ZZI  28 1
M  ZZM  29 5
M  ZZI  29 1
M  ZZM  30 5
M  ZZI  30 1
M  END
> <IX>
1

> <NAME>
Cereblon_5P9J_23.pdb

> <Score>
-16.909568

> <Natom>
30

> <Nflex>
1

> <Hbond>
-4.507703

> <Hphob>
-3.718027

> <VwInt>
-21.576737

> <Dsolv>
13.970077

> <SolEl>
5.485635

> <Eintl>
6.441098

> <RecConf>
ND

> <projPath>
Cereblon_maps/

> <NAME_>
Cereblon_5P9J_23.pdb

$$$$
