Cereblon_1HWK_35.pdb
  MOLSOFT 04032206193D

 30 32  0  0  1  0  0  0  0  0999 V2000
   76.0596   42.8429   38.6159 C   0  0  0  0  0  0  0  0  0  0  0  0
   74.9794   42.0641   38.2351 C   0  0  0  0  0  0  0  0  0  0  0  0
   74.7311   40.8797   38.8685 C   0  0  0  0  0  0  0  0  0  0  0  0
   73.5571   40.2622   38.2472 C   0  0  0  0  0  0  0  0  0  0  0  0
   73.1123   39.1713   38.5726 O   0  0  0  0  0  0  0  0  0  0  0  0
   73.1129   41.1368   37.2713 N   0  0  0  0  0  0  0  0  0  0  0  0
   71.9675   40.8519   36.3872 C   0  0  1  0  0  0  0  0  0  0  0  0
   70.6409   41.0185   37.1262 C   0  0  0  0  0  0  0  0  0  0  0  0
   70.1995   40.2081   37.9265 O   0  0  0  0  0  0  0  0  0  0  0  0
   69.9363   42.1664   36.8849 N   0  0  0  0  0  0  0  0  0  0  0  0
   70.2104   43.1855   36.0244 C   0  0  0  0  0  0  0  0  0  0  0  0
   69.4775   44.1572   35.9781 O   0  0  0  0  0  0  0  0  0  0  0  0
   71.4648   43.0617   35.2038 C   0  0  0  0  0  0  0  0  0  0  0  0
   71.9215   41.6153   35.0604 C   0  0  0  0  0  0  0  0  0  0  0  0
   73.9714   42.3059   37.1713 C   0  0  0  0  0  0  0  0  0  0  0  0
   75.5096   40.3992   39.9046 C   0  0  0  0  0  0  0  0  0  0  0  0
   76.5762   41.1880   40.3082 C   0  0  0  0  0  0  0  0  0  0  0  0
   76.8461   42.3952   39.6688 C   0  0  0  0  0  0  0  0  0  0  0  0
   76.2946   43.7755   38.1126 H   0  0  0  0  0  0  0  0  0  0  0  0
   72.0352   39.7846   36.1479 H   0  0  0  0  0  0  0  0  0  0  0  0
   69.0657   42.2612   37.3912 H   0  0  0  0  0  0  0  0  0  0  0  0
   71.2541   43.4687   34.2118 H   0  0  0  0  0  0  0  0  0  0  0  0
   72.2306   43.6956   35.6546 H   0  0  0  0  0  0  0  0  0  0  0  0
   71.2112   41.1070   34.3977 H   0  0  0  0  0  0  0  0  0  0  0  0
   72.8896   41.5765   34.5529 H   0  0  0  0  0  0  0  0  0  0  0  0
   73.3949   43.2104   37.3726 H   0  0  0  0  0  0  0  0  0  0  0  0
   74.4430   42.3400   36.1843 H   0  0  0  0  0  0  0  0  0  0  0  0
   75.2973   39.4474   40.3810 H   0  0  0  0  0  0  0  0  0  0  0  0
   77.2148   40.8570   41.1215 H   0  0  0  0  0  0  0  0  0  0  0  0
   77.6936   42.9912   39.9937 H   0  0  0  0  0  0  0  0  0  0  0  0
  1 19  1  0  0  0  0
  1 18  2  0  0  0  0
  1  2  1  0  0  0  0
  2  3  2  0  0  0  0
  2 15  1  0  0  0  0
  3 16  1  0  0  0  0
  3  4  1  0  0  0  0
  4  6  1  0  0  0  0
  4  5  2  0  0  0  0
  6 15  1  0  0  0  0
  7  6  1  0  0  0  0
  7 20  1  0  0  0  0
  7  8  1  0  0  0  0
  7 14  1  0  0  0  0
  8  9  2  0  0  0  0
  8 10  1  0  0  0  0
 10 21  1  0  0  0  0
 10 11  1  0  0  0  0
 11 12  2  0  0  0  0
 11 13  1  0  0  0  0
 13 22  1  0  0  0  0
 13 23  1  0  0  0  0
 13 14  1  0  0  0  0
 14 24  1  0  0  0  0
 14 25  1  0  0  0  0
 15 26  1  0  0  0  0
 15 27  1  0  0  0  0
 16 17  2  0  0  0  0
 16 28  1  0  0  0  0
 17 18  1  0  0  0  0
 17 29  1  0  0  0  0
 18 30  1  0  0  0  0
M  ZZC   1 c1
M  ZZC   2 c2
M  ZZC   3 c3
M  ZZC   4 c4
M  ZZC   5 o1
M  ZZC   6 n1
M  ZZC   7 c5
M  ZZC   8 c6
M  ZZC   9 o2
M  ZZC  10 n2
M  ZZC  11 c7
M  ZZC  12 o3
M  ZZC  13 c8
M  ZZC  14 c9
M  ZZC  15 c10
M  ZZC  16 c11
M  ZZC  17 c12
M  ZZC  18 c13
M  ZZC  19 h11
M  ZZC  20 h51
M  ZZC  21 h21
M  ZZC  22 h81
M  ZZC  23 h82
M  ZZC  24 h91
M  ZZC  25 h92
M  ZZC  26 h101
M  ZZC  27 h102
M  ZZC  28 h111
M  ZZC  29 h121
M  ZZC  30 h131
M  ZZM   1 37
M  ZZI   1 125
M  ZZM   2 37
M  ZZI   2 124
M  ZZM   3 37
M  ZZI   3 124
M  ZZM   4 3
M  ZZI   4 121
M  ZZM   5 7
M  ZZI   5 81
M  ZZM   6 10
M  ZZI   6 192
M  ZZM   7 1
M  ZZI   7 113
M  ZZM   8 3
M  ZZI   8 121
M  ZZM   9 7
M  ZZI   9 81
M  ZZM  10 10
M  ZZI  10 191
M  ZZM  11 3
M  ZZI  11 121
M  ZZM  12 7
M  ZZI  12 81
M  ZZM  13 1
M  ZZI  13 112
M  ZZM  14 1
M  ZZI  14 112
M  ZZM  15 1
M  ZZI  15 112
M  ZZM  16 37
M  ZZI  16 125
M  ZZM  17 37
M  ZZI  17 125
M  ZZM  18 37
M  ZZI  18 125
M  ZZM  19 5
M  ZZI  19 1
M  ZZM  20 5
M  ZZI  20 1
M  ZZM  21 28
M  ZZI  21 11
M  ZZM  22 5
M  ZZI  22 1
M  ZZM  23 5
M  ZZI  23 1
M  ZZM  24 5
M  ZZI  24 1
M  ZZM  25 5
M  ZZI  25 1
M  ZZM  26 5
M  ZZI  26 1
M  ZZM  27 5
M  ZZI  27 1
M  ZZM  28 5
M  ZZI  28 1
M  ZZM  29 5
M  ZZI  29 1
M  ZZM  30 5
M  ZZI  30 1
M  END
> <IX>
1

> <NAME>
Cereblon_1HWK_35.pdb

> <Score>
-14.303053

> <Natom>
30

> <Nflex>
1

> <Hbond>
-4.298692

> <Hphob>
-3.904359

> <VwInt>
-21.855172

> <Dsolv>
12.542409

> <SolEl>
11.707169

> <Eintl>
5.516988

> <RecConf>
ND

> <projPath>
Cereblon_maps/

> <NAME_>
Cereblon_1HWK_35.pdb

$$$$
