Cereblon_4EKL_1.pdb
  MOLSOFT 04032206233D

 30 32  0  0  1  0  0  0  0  0999 V2000
   76.0586   42.8416   38.6175 C   0  0  0  0  0  0  0  0  0  0  0  0
   74.9790   42.0623   38.2360 C   0  0  0  0  0  0  0  0  0  0  0  0
   74.7312   40.8775   38.8690 C   0  0  0  0  0  0  0  0  0  0  0  0
   73.5577   40.2596   38.2471 C   0  0  0  0  0  0  0  0  0  0  0  0
   73.1132   39.1685   38.5721 O   0  0  0  0  0  0  0  0  0  0  0  0
   73.1134   41.1343   37.2713 N   0  0  0  0  0  0  0  0  0  0  0  0
   71.9681   40.8496   36.3871 C   0  0  1  0  0  0  0  0  0  0  0  0
   70.6417   41.0177   37.1259 C   0  0  0  0  0  0  0  0  0  0  0  0
   70.1993   40.2078   37.9262 O   0  0  0  0  0  0  0  0  0  0  0  0
   69.9387   42.1667   36.8848 N   0  0  0  0  0  0  0  0  0  0  0  0
   70.2140   43.1853   36.0240 C   0  0  0  0  0  0  0  0  0  0  0  0
   69.4827   44.1582   35.9779 O   0  0  0  0  0  0  0  0  0  0  0  0
   71.4677   43.0593   35.2026 C   0  0  0  0  0  0  0  0  0  0  0  0
   71.9227   41.6123   35.0599 C   0  0  0  0  0  0  0  0  0  0  0  0
   73.9713   42.3039   37.1721 C   0  0  0  0  0  0  0  0  0  0  0  0
   75.5098   40.3970   39.9050 C   0  0  0  0  0  0  0  0  0  0  0  0
   76.5758   41.1863   40.3092 C   0  0  0  0  0  0  0  0  0  0  0  0
   76.8451   42.3939   39.6704 C   0  0  0  0  0  0  0  0  0  0  0  0
   76.2930   43.7746   38.1146 H   0  0  0  0  0  0  0  0  0  0  0  0
   72.0350   39.7821   36.1486 H   0  0  0  0  0  0  0  0  0  0  0  0
   69.0685   42.2628   37.3915 H   0  0  0  0  0  0  0  0  0  0  0  0
   71.2567   43.4655   34.2104 H   0  0  0  0  0  0  0  0  0  0  0  0
   72.2345   43.6928   35.6522 H   0  0  0  0  0  0  0  0  0  0  0  0
   71.2118   41.1043   34.3977 H   0  0  0  0  0  0  0  0  0  0  0  0
   72.8907   41.5721   34.5523 H   0  0  0  0  0  0  0  0  0  0  0  0
   73.3942   43.2080   37.3737 H   0  0  0  0  0  0  0  0  0  0  0  0
   74.4431   42.3387   36.1852 H   0  0  0  0  0  0  0  0  0  0  0  0
   75.2979   39.4449   40.3811 H   0  0  0  0  0  0  0  0  0  0  0  0
   77.2145   40.8553   41.1226 H   0  0  0  0  0  0  0  0  0  0  0  0
   77.6920   42.9904   39.9958 H   0  0  0  0  0  0  0  0  0  0  0  0
  1 19  1  0  0  0  0
  1 18  2  0  0  0  0
  1  2  1  0  0  0  0
  2  3  2  0  0  0  0
  2 15  1  0  0  0  0
  3 16  1  0  0  0  0
  3  4  1  0  0  0  0
  4  6  1  0  0  0  0
  4  5  2  0  0  0  0
  6 15  1  0  0  0  0
  7  6  1  0  0  0  0
  7 20  1  0  0  0  0
  7  8  1  0  0  0  0
  7 14  1  0  0  0  0
  8  9  2  0  0  0  0
  8 10  1  0  0  0  0
 10 21  1  0  0  0  0
 10 11  1  0  0  0  0
 11 12  2  0  0  0  0
 11 13  1  0  0  0  0
 13 22  1  0  0  0  0
 13 23  1  0  0  0  0
 13 14  1  0  0  0  0
 14 24  1  0  0  0  0
 14 25  1  0  0  0  0
 15 26  1  0  0  0  0
 15 27  1  0  0  0  0
 16 17  2  0  0  0  0
 16 28  1  0  0  0  0
 17 18  1  0  0  0  0
 17 29  1  0  0  0  0
 18 30  1  0  0  0  0
M  ZZC   1 c1
M  ZZC   2 c2
M  ZZC   3 c3
M  ZZC   4 c4
M  ZZC   5 o1
M  ZZC   6 n1
M  ZZC   7 c5
M  ZZC   8 c6
M  ZZC   9 o2
M  ZZC  10 n2
M  ZZC  11 c7
M  ZZC  12 o3
M  ZZC  13 c8
M  ZZC  14 c9
M  ZZC  15 c10
M  ZZC  16 c11
M  ZZC  17 c12
M  ZZC  18 c13
M  ZZC  19 h11
M  ZZC  20 h51
M  ZZC  21 h21
M  ZZC  22 h81
M  ZZC  23 h82
M  ZZC  24 h91
M  ZZC  25 h92
M  ZZC  26 h101
M  ZZC  27 h102
M  ZZC  28 h111
M  ZZC  29 h121
M  ZZC  30 h131
M  ZZM   1 37
M  ZZI   1 125
M  ZZM   2 37
M  ZZI   2 124
M  ZZM   3 37
M  ZZI   3 124
M  ZZM   4 3
M  ZZI   4 121
M  ZZM   5 7
M  ZZI   5 81
M  ZZM   6 10
M  ZZI   6 192
M  ZZM   7 1
M  ZZI   7 113
M  ZZM   8 3
M  ZZI   8 121
M  ZZM   9 7
M  ZZI   9 81
M  ZZM  10 10
M  ZZI  10 191
M  ZZM  11 3
M  ZZI  11 121
M  ZZM  12 7
M  ZZI  12 81
M  ZZM  13 1
M  ZZI  13 112
M  ZZM  14 1
M  ZZI  14 112
M  ZZM  15 1
M  ZZI  15 112
M  ZZM  16 37
M  ZZI  16 125
M  ZZM  17 37
M  ZZI  17 125
M  ZZM  18 37
M  ZZI  18 125
M  ZZM  19 5
M  ZZI  19 1
M  ZZM  20 5
M  ZZI  20 1
M  ZZM  21 28
M  ZZI  21 11
M  ZZM  22 5
M  ZZI  22 1
M  ZZM  23 5
M  ZZI  23 1
M  ZZM  24 5
M  ZZI  24 1
M  ZZM  25 5
M  ZZI  25 1
M  ZZM  26 5
M  ZZI  26 1
M  ZZM  27 5
M  ZZI  27 1
M  ZZM  28 5
M  ZZI  28 1
M  ZZM  29 5
M  ZZI  29 1
M  ZZM  30 5
M  ZZI  30 1
M  END
> <IX>
1

> <NAME>
Cereblon_4EKL_1.pdb

> <Score>
-14.209528

> <Natom>
30

> <Nflex>
1

> <Hbond>
-4.298653

> <Hphob>
-3.940944

> <VwInt>
-21.837416

> <Dsolv>
12.590743

> <SolEl>
11.814206

> <Eintl>
5.505799

> <RecConf>
ND

> <projPath>
Cereblon_maps/

> <NAME_>
Cereblon_4EKL_1.pdb

$$$$
