Cereblon_2VTI_1.pdb
  MOLSOFT 04032206203D

 29 31  0  0  1  0  0  0  0  0999 V2000
   79.0036   42.4908   42.6717 C   0  0  0  0  0  0  0  0  0  0  0  0
   78.1858   42.1956   41.5953 C   0  0  0  0  0  0  0  0  0  0  0  0
   77.2678   41.0775   41.4093 C   0  0  0  0  0  0  0  0  0  0  0  0
   77.0873   40.2163   42.2565 O   0  0  0  0  0  0  0  0  0  0  0  0
   76.7268   41.2211   40.1448 N   0  0  0  0  0  0  0  0  0  0  0  0
   77.2244   42.3477   39.5214 C   0  0  0  0  0  0  0  0  0  0  0  0
   76.9887   42.7669   38.3956 O   0  0  0  0  0  0  0  0  0  0  0  0
   78.1593   42.9585   40.4668 C   0  0  0  0  0  0  0  0  0  0  0  0
   78.9583   44.0746   40.3251 C   0  0  0  0  0  0  0  0  0  0  0  0
   79.7997   44.3844   41.3877 C   0  0  0  0  0  0  0  0  0  0  0  0
   79.8227   43.6064   42.5457 C   0  0  0  0  0  0  0  0  0  0  0  0
   75.7181   40.3672   39.5118 C   0  0  2  0  0  0  0  0  0  0  0  0
   74.3390   40.9366   39.8023 C   0  0  0  0  0  0  0  0  0  0  0  0
   74.1521   42.1224   40.0188 O   0  0  0  0  0  0  0  0  0  0  0  0
   73.2881   40.0554   39.7250 N   0  0  0  0  0  0  0  0  0  0  0  0
   73.3255   38.7102   39.4509 C   0  0  0  0  0  0  0  0  0  0  0  0
   72.3090   38.0382   39.3900 O   0  0  0  0  0  0  0  0  0  0  0  0
   74.6897   38.1282   39.1742 C   0  0  0  0  0  0  0  0  0  0  0  0
   75.7721   38.8964   39.9121 C   0  0  0  0  0  0  0  0  0  0  0  0
   79.0140   41.8760   43.5675 H   0  0  0  0  0  0  0  0  0  0  0  0
   78.9280   44.6756   39.4246 H   0  0  0  0  0  0  0  0  0  0  0  0
   80.4479   45.2501   41.3191 H   0  0  0  0  0  0  0  0  0  0  0  0
   80.4887   43.8743   43.3610 H   0  0  0  0  0  0  0  0  0  0  0  0
   75.8571   40.4557   38.4320 H   0  0  0  0  0  0  0  0  0  0  0  0
   72.3697   40.4492   39.8881 H   0  0  0  0  0  0  0  0  0  0  0  0
   74.6949   37.0826   39.4982 H   0  0  0  0  0  0  0  0  0  0  0  0
   74.8515   38.1514   38.0921 H   0  0  0  0  0  0  0  0  0  0  0  0
   76.7574   38.4748   39.6875 H   0  0  0  0  0  0  0  0  0  0  0  0
   75.6087   38.7756   40.9865 H   0  0  0  0  0  0  0  0  0  0  0  0
  1 20  1  0  0  0  0
  1  2  1  0  0  0  0
  1 11  2  0  0  0  0
  2  3  1  0  0  0  0
  2  8  2  0  0  0  0
  3  4  2  0  0  0  0
  3  5  1  0  0  0  0
  5  6  1  0  0  0  0
 12  5  1  0  0  0  0
  6  7  2  0  0  0  0
  6  8  1  0  0  0  0
  8  9  1  0  0  0  0
  9 21  1  0  0  0  0
  9 10  2  0  0  0  0
 10 22  1  0  0  0  0
 10 11  1  0  0  0  0
 11 23  1  0  0  0  0
 12 24  1  0  0  0  0
 12 13  1  0  0  0  0
 12 19  1  0  0  0  0
 13 14  2  0  0  0  0
 13 15  1  0  0  0  0
 15 25  1  0  0  0  0
 15 16  1  0  0  0  0
 16 17  2  0  0  0  0
 16 18  1  0  0  0  0
 18 26  1  0  0  0  0
 18 27  1  0  0  0  0
 18 19  1  0  0  0  0
 19 28  1  0  0  0  0
 19 29  1  0  0  0  0
M  ZZC   1 c1
M  ZZC   2 c2
M  ZZC   3 c3
M  ZZC   4 o1
M  ZZC   5 n1
M  ZZC   6 c4
M  ZZC   7 o2
M  ZZC   8 c5
M  ZZC   9 c6
M  ZZC  10 c7
M  ZZC  11 c8
M  ZZC  12 c9
M  ZZC  13 c10
M  ZZC  14 o3
M  ZZC  15 n2
M  ZZC  16 c11
M  ZZC  17 o4
M  ZZC  18 c12
M  ZZC  19 c13
M  ZZC  20 h11
M  ZZC  21 h61
M  ZZC  22 h71
M  ZZC  23 h81
M  ZZC  24 h91
M  ZZC  25 h21
M  ZZC  26 h121
M  ZZC  27 h122
M  ZZC  28 h131
M  ZZC  29 h132
M  ZZM   1 37
M  ZZI   1 125
M  ZZM   2 37
M  ZZI   2 124
M  ZZM   3 3
M  ZZI   3 121
M  ZZM   4 7
M  ZZI   4 81
M  ZZM   5 10
M  ZZI   5 192
M  ZZM   6 3
M  ZZI   6 121
M  ZZM   7 7
M  ZZI   7 81
M  ZZM   8 37
M  ZZI   8 124
M  ZZM   9 37
M  ZZI   9 125
M  ZZM  10 37
M  ZZI  10 125
M  ZZM  11 37
M  ZZI  11 125
M  ZZM  12 1
M  ZZI  12 113
M  ZZM  13 3
M  ZZI  13 121
M  ZZM  14 7
M  ZZI  14 81
M  ZZM  15 10
M  ZZI  15 191
M  ZZM  16 3
M  ZZI  16 121
M  ZZM  17 7
M  ZZI  17 81
M  ZZM  18 1
M  ZZI  18 112
M  ZZM  19 1
M  ZZI  19 112
M  ZZM  20 5
M  ZZI  20 1
M  ZZM  21 5
M  ZZI  21 1
M  ZZM  22 5
M  ZZI  22 1
M  ZZM  23 5
M  ZZI  23 1
M  ZZM  24 5
M  ZZI  24 1
M  ZZM  25 28
M  ZZI  25 11
M  ZZM  26 5
M  ZZI  26 1
M  ZZM  27 5
M  ZZI  27 1
M  ZZM  28 5
M  ZZI  28 1
M  ZZM  29 5
M  ZZI  29 1
M  END
> <IX>
1

> <NAME>
Cereblon_2VTI_1.pdb

> <Score>
-19.295119

> <Natom>
29

> <Nflex>
1

> <Hbond>
-3.36984

> <Hphob>
-3.547862

> <VwInt>
-22.680477

> <Dsolv>
12.060972

> <SolEl>
5.698762

> <Eintl>
1.468681

> <RecConf>
ND

> <projPath>
Cereblon_maps/

> <NAME_>
Cereblon_2VTI_1.pdb

$$$$
