Cereblon_6YBL_2.pdb
  MOLSOFT 04032206303D

 29 31  0  0  1  0  0  0  0  0999 V2000
   78.9987   42.4826   42.6746 C   0  0  0  0  0  0  0  0  0  0  0  0
   78.1814   42.1902   41.5973 C   0  0  0  0  0  0  0  0  0  0  0  0
   77.2635   41.0730   41.4100 C   0  0  0  0  0  0  0  0  0  0  0  0
   77.0857   40.2089   42.2547 O   0  0  0  0  0  0  0  0  0  0  0  0
   76.7222   41.2184   40.1459 N   0  0  0  0  0  0  0  0  0  0  0  0
   77.2202   42.3454   39.5239 C   0  0  0  0  0  0  0  0  0  0  0  0
   76.9862   42.7645   38.3976 O   0  0  0  0  0  0  0  0  0  0  0  0
   78.1550   42.9552   40.4700 C   0  0  0  0  0  0  0  0  0  0  0  0
   78.9544   44.0714   40.3306 C   0  0  0  0  0  0  0  0  0  0  0  0
   79.7955   44.3791   41.3943 C   0  0  0  0  0  0  0  0  0  0  0  0
   79.8180   43.5982   42.5506 C   0  0  0  0  0  0  0  0  0  0  0  0
   75.7145   40.3643   39.5115 C   0  0  2  0  0  0  0  0  0  0  0  0
   74.3343   40.9346   39.7966 C   0  0  0  0  0  0  0  0  0  0  0  0
   74.1482   42.1203   40.0143 O   0  0  0  0  0  0  0  0  0  0  0  0
   73.2829   40.0545   39.7139 N   0  0  0  0  0  0  0  0  0  0  0  0
   73.3203   38.7088   39.4424 C   0  0  0  0  0  0  0  0  0  0  0  0
   72.3037   38.0368   39.3799 O   0  0  0  0  0  0  0  0  0  0  0  0
   74.6854   38.1253   39.1725 C   0  0  0  0  0  0  0  0  0  0  0  0
   75.7660   38.8939   39.9126 C   0  0  0  0  0  0  0  0  0  0  0  0
   79.0071   41.8659   43.5691 H   0  0  0  0  0  0  0  0  0  0  0  0
   78.9252   44.6747   39.4311 H   0  0  0  0  0  0  0  0  0  0  0  0
   80.4456   45.2437   41.3260 H   0  0  0  0  0  0  0  0  0  0  0  0
   80.4855   43.8648   43.3651 H   0  0  0  0  0  0  0  0  0  0  0  0
   75.8562   40.4531   38.4324 H   0  0  0  0  0  0  0  0  0  0  0  0
   72.3643   40.4497   39.8722 H   0  0  0  0  0  0  0  0  0  0  0  0
   74.6878   37.0799   39.4971 H   0  0  0  0  0  0  0  0  0  0  0  0
   74.8509   38.1460   38.0910 H   0  0  0  0  0  0  0  0  0  0  0  0
   75.5991   38.7736   40.9866 H   0  0  0  0  0  0  0  0  0  0  0  0
   76.7516   38.4702   39.6940 H   0  0  0  0  0  0  0  0  0  0  0  0
  1 20  1  0  0  0  0
  1  2  1  0  0  0  0
  1 11  2  0  0  0  0
  2  3  1  0  0  0  0
  2  8  2  0  0  0  0
  3  4  2  0  0  0  0
  3  5  1  0  0  0  0
  5  6  1  0  0  0  0
 12  5  1  0  0  0  0
  6  7  2  0  0  0  0
  6  8  1  0  0  0  0
  8  9  1  0  0  0  0
  9 21  1  0  0  0  0
  9 10  2  0  0  0  0
 10 22  1  0  0  0  0
 10 11  1  0  0  0  0
 11 23  1  0  0  0  0
 12 24  1  0  0  0  0
 12 13  1  0  0  0  0
 12 19  1  0  0  0  0
 13 14  2  0  0  0  0
 13 15  1  0  0  0  0
 15 25  1  0  0  0  0
 15 16  1  0  0  0  0
 16 17  2  0  0  0  0
 16 18  1  0  0  0  0
 18 26  1  0  0  0  0
 18 27  1  0  0  0  0
 18 19  1  0  0  0  0
 19 28  1  0  0  0  0
 19 29  1  0  0  0  0
M  ZZC   1 c1
M  ZZC   2 c2
M  ZZC   3 c3
M  ZZC   4 o1
M  ZZC   5 n1
M  ZZC   6 c4
M  ZZC   7 o2
M  ZZC   8 c5
M  ZZC   9 c6
M  ZZC  10 c7
M  ZZC  11 c8
M  ZZC  12 c9
M  ZZC  13 c10
M  ZZC  14 o3
M  ZZC  15 n2
M  ZZC  16 c11
M  ZZC  17 o4
M  ZZC  18 c12
M  ZZC  19 c13
M  ZZC  20 h11
M  ZZC  21 h61
M  ZZC  22 h71
M  ZZC  23 h81
M  ZZC  24 h91
M  ZZC  25 h21
M  ZZC  26 h121
M  ZZC  27 h122
M  ZZC  28 h131
M  ZZC  29 h132
M  ZZM   1 37
M  ZZI   1 125
M  ZZM   2 37
M  ZZI   2 124
M  ZZM   3 3
M  ZZI   3 121
M  ZZM   4 7
M  ZZI   4 81
M  ZZM   5 10
M  ZZI   5 192
M  ZZM   6 3
M  ZZI   6 121
M  ZZM   7 7
M  ZZI   7 81
M  ZZM   8 37
M  ZZI   8 124
M  ZZM   9 37
M  ZZI   9 125
M  ZZM  10 37
M  ZZI  10 125
M  ZZM  11 37
M  ZZI  11 125
M  ZZM  12 1
M  ZZI  12 113
M  ZZM  13 3
M  ZZI  13 121
M  ZZM  14 7
M  ZZI  14 81
M  ZZM  15 10
M  ZZI  15 191
M  ZZM  16 3
M  ZZI  16 121
M  ZZM  17 7
M  ZZI  17 81
M  ZZM  18 1
M  ZZI  18 112
M  ZZM  19 1
M  ZZI  19 112
M  ZZM  20 5
M  ZZI  20 1
M  ZZM  21 5
M  ZZI  21 1
M  ZZM  22 5
M  ZZI  22 1
M  ZZM  23 5
M  ZZI  23 1
M  ZZM  24 5
M  ZZI  24 1
M  ZZM  25 28
M  ZZI  25 11
M  ZZM  26 5
M  ZZI  26 1
M  ZZM  27 5
M  ZZI  27 1
M  ZZM  28 5
M  ZZI  28 1
M  ZZM  29 5
M  ZZI  29 1
M  END
> <IX>
1

> <NAME>
Cereblon_6YBL_2.pdb

> <Score>
-19.367198

> <Natom>
29

> <Nflex>
1

> <Hbond>
-3.292026

> <Hphob>
-3.570275

> <VwInt>
-22.860197

> <Dsolv>
12.131595

> <SolEl>
5.472499

> <Eintl>
1.505604

> <RecConf>
ND

> <projPath>
Cereblon_maps/

> <NAME_>
Cereblon_6YBL_2.pdb

$$$$
