Cereblon_2VTI_2.pdb
  MOLSOFT 04032206203D

 29 31  0  0  1  0  0  0  0  0999 V2000
   79.0047   42.4909   42.6733 C   0  0  0  0  0  0  0  0  0  0  0  0
   78.1871   42.1955   41.5969 C   0  0  0  0  0  0  0  0  0  0  0  0
   77.2689   41.0779   41.4115 C   0  0  0  0  0  0  0  0  0  0  0  0
   77.0877   40.2181   42.2600 O   0  0  0  0  0  0  0  0  0  0  0  0
   76.7287   41.2201   40.1466 N   0  0  0  0  0  0  0  0  0  0  0  0
   77.2240   42.3479   39.5240 C   0  0  0  0  0  0  0  0  0  0  0  0
   76.9873   42.7665   38.3982 O   0  0  0  0  0  0  0  0  0  0  0  0
   78.1590   42.9593   40.4689 C   0  0  0  0  0  0  0  0  0  0  0  0
   78.9575   44.0758   40.3272 C   0  0  0  0  0  0  0  0  0  0  0  0
   79.8000   44.3849   41.3892 C   0  0  0  0  0  0  0  0  0  0  0  0
   79.8232   43.6069   42.5472 C   0  0  0  0  0  0  0  0  0  0  0  0
   75.7206   40.3651   39.5136 C   0  0  2  0  0  0  0  0  0  0  0  0
   74.3403   40.9335   39.8025 C   0  0  0  0  0  0  0  0  0  0  0  0
   74.1533   42.1197   40.0168 O   0  0  0  0  0  0  0  0  0  0  0  0
   73.2900   40.0518   39.7246 N   0  0  0  0  0  0  0  0  0  0  0  0
   73.3286   38.7052   39.4574 C   0  0  0  0  0  0  0  0  0  0  0  0
   72.3134   38.0305   39.4052 O   0  0  0  0  0  0  0  0  0  0  0  0
   74.6933   38.1242   39.1797 C   0  0  0  0  0  0  0  0  0  0  0  0
   75.7755   38.8947   39.9155 C   0  0  0  0  0  0  0  0  0  0  0  0
   79.0180   41.8739   43.5675 H   0  0  0  0  0  0  0  0  0  0  0  0
   78.9259   44.6779   39.4269 H   0  0  0  0  0  0  0  0  0  0  0  0
   80.4468   45.2519   41.3205 H   0  0  0  0  0  0  0  0  0  0  0  0
   80.4905   43.8755   43.3612 H   0  0  0  0  0  0  0  0  0  0  0  0
   75.8595   40.4531   38.4341 H   0  0  0  0  0  0  0  0  0  0  0  0
   72.3718   40.4457   39.8879 H   0  0  0  0  0  0  0  0  0  0  0  0
   74.7007   37.0784   39.5033 H   0  0  0  0  0  0  0  0  0  0  0  0
   74.8537   38.1460   38.0974 H   0  0  0  0  0  0  0  0  0  0  0  0
   75.6133   38.7752   40.9904 H   0  0  0  0  0  0  0  0  0  0  0  0
   76.7610   38.4730   39.6926 H   0  0  0  0  0  0  0  0  0  0  0  0
  1 20  1  0  0  0  0
  1  2  1  0  0  0  0
  1 11  2  0  0  0  0
  2  3  1  0  0  0  0
  2  8  2  0  0  0  0
  3  4  2  0  0  0  0
  3  5  1  0  0  0  0
  5  6  1  0  0  0  0
 12  5  1  0  0  0  0
  6  7  2  0  0  0  0
  6  8  1  0  0  0  0
  8  9  1  0  0  0  0
  9 21  1  0  0  0  0
  9 10  2  0  0  0  0
 10 22  1  0  0  0  0
 10 11  1  0  0  0  0
 11 23  1  0  0  0  0
 12 24  1  0  0  0  0
 12 13  1  0  0  0  0
 12 19  1  0  0  0  0
 13 14  2  0  0  0  0
 13 15  1  0  0  0  0
 15 25  1  0  0  0  0
 15 16  1  0  0  0  0
 16 17  2  0  0  0  0
 16 18  1  0  0  0  0
 18 26  1  0  0  0  0
 18 27  1  0  0  0  0
 18 19  1  0  0  0  0
 19 28  1  0  0  0  0
 19 29  1  0  0  0  0
M  ZZC   1 c1
M  ZZC   2 c2
M  ZZC   3 c3
M  ZZC   4 o1
M  ZZC   5 n1
M  ZZC   6 c4
M  ZZC   7 o2
M  ZZC   8 c5
M  ZZC   9 c6
M  ZZC  10 c7
M  ZZC  11 c8
M  ZZC  12 c9
M  ZZC  13 c10
M  ZZC  14 o3
M  ZZC  15 n2
M  ZZC  16 c11
M  ZZC  17 o4
M  ZZC  18 c12
M  ZZC  19 c13
M  ZZC  20 h11
M  ZZC  21 h61
M  ZZC  22 h71
M  ZZC  23 h81
M  ZZC  24 h91
M  ZZC  25 h21
M  ZZC  26 h121
M  ZZC  27 h122
M  ZZC  28 h131
M  ZZC  29 h132
M  ZZM   1 37
M  ZZI   1 125
M  ZZM   2 37
M  ZZI   2 124
M  ZZM   3 3
M  ZZI   3 121
M  ZZM   4 7
M  ZZI   4 81
M  ZZM   5 10
M  ZZI   5 192
M  ZZM   6 3
M  ZZI   6 121
M  ZZM   7 7
M  ZZI   7 81
M  ZZM   8 37
M  ZZI   8 124
M  ZZM   9 37
M  ZZI   9 125
M  ZZM  10 37
M  ZZI  10 125
M  ZZM  11 37
M  ZZI  11 125
M  ZZM  12 1
M  ZZI  12 113
M  ZZM  13 3
M  ZZI  13 121
M  ZZM  14 7
M  ZZI  14 81
M  ZZM  15 10
M  ZZI  15 191
M  ZZM  16 3
M  ZZI  16 121
M  ZZM  17 7
M  ZZI  17 81
M  ZZM  18 1
M  ZZI  18 112
M  ZZM  19 1
M  ZZI  19 112
M  ZZM  20 5
M  ZZI  20 1
M  ZZM  21 5
M  ZZI  21 1
M  ZZM  22 5
M  ZZI  22 1
M  ZZM  23 5
M  ZZI  23 1
M  ZZM  24 5
M  ZZI  24 1
M  ZZM  25 28
M  ZZI  25 11
M  ZZM  26 5
M  ZZI  26 1
M  ZZM  27 5
M  ZZI  27 1
M  ZZM  28 5
M  ZZI  28 1
M  ZZM  29 5
M  ZZI  29 1
M  END
> <IX>
1

> <NAME>
Cereblon_2VTI_2.pdb

> <Score>
-19.364249

> <Natom>
29

> <Nflex>
1

> <Hbond>
-3.36636

> <Hphob>
-3.566877

> <VwInt>
-22.694079

> <Dsolv>
12.006009

> <SolEl>
5.668156

> <Eintl>
1.485064

> <RecConf>
ND

> <projPath>
Cereblon_maps/

> <NAME_>
Cereblon_2VTI_2.pdb

$$$$
