Cereblon_5HZN_10.pdb
  MOLSOFT 04032206243D

 31 33  0  0  1  0  0  0  0  0999 V2000
   78.8138   41.6753   43.8102 N   0  0  0  0  0  0  0  0  0  0  0  0
   78.8923   42.4319   42.6306 C   0  0  0  0  0  0  0  0  0  0  0  0
   78.0913   42.1610   41.5340 C   0  0  0  0  0  0  0  0  0  0  0  0
   77.1699   41.0511   41.3274 C   0  0  0  0  0  0  0  0  0  0  0  0
   76.9898   40.1691   42.1535 O   0  0  0  0  0  0  0  0  0  0  0  0
   76.6320   41.2165   40.0666 N   0  0  0  0  0  0  0  0  0  0  0  0
   77.1580   42.3337   39.4501 C   0  0  0  0  0  0  0  0  0  0  0  0
   76.9515   42.7492   38.3173 O   0  0  0  0  0  0  0  0  0  0  0  0
   78.0891   42.9298   40.4095 C   0  0  0  0  0  0  0  0  0  0  0  0
   78.9029   44.0375   40.2872 C   0  0  0  0  0  0  0  0  0  0  0  0
   79.7218   44.3350   41.3693 C   0  0  0  0  0  0  0  0  0  0  0  0
   79.7081   43.5545   42.5271 C   0  0  0  0  0  0  0  0  0  0  0  0
   75.6174   40.3762   39.4262 C   0  0  2  0  0  0  0  0  0  0  0  0
   74.2447   40.9553   39.7224 C   0  0  0  0  0  0  0  0  0  0  0  0
   74.0733   42.1337   39.9845 O   0  0  0  0  0  0  0  0  0  0  0  0
   73.1846   40.0921   39.5938 N   0  0  0  0  0  0  0  0  0  0  0  0
   73.2115   38.7548   39.2803 C   0  0  0  0  0  0  0  0  0  0  0  0
   72.1866   38.1055   39.1538 O   0  0  0  0  0  0  0  0  0  0  0  0
   74.5765   38.1502   39.0517 C   0  0  0  0  0  0  0  0  0  0  0  0
   75.6487   38.9031   39.8198 C   0  0  0  0  0  0  0  0  0  0  0  0
   79.5423   41.7601   44.5161 H   0  0  0  0  0  0  0  0  0  0  0  0
   78.2598   40.8172   43.7991 H   0  0  0  0  0  0  0  0  0  0  0  0
   78.8968   44.6434   39.3889 H   0  0  0  0  0  0  0  0  0  0  0  0
   80.3758   45.1986   41.3211 H   0  0  0  0  0  0  0  0  0  0  0  0
   80.3461   43.8319   43.3608 H   0  0  0  0  0  0  0  0  0  0  0  0
   75.7577   40.4741   38.3486 H   0  0  0  0  0  0  0  0  0  0  0  0
   72.2680   40.4955   39.7434 H   0  0  0  0  0  0  0  0  0  0  0  0
   74.5544   37.1055   39.3778 H   0  0  0  0  0  0  0  0  0  0  0  0
   74.7770   38.1649   37.9760 H   0  0  0  0  0  0  0  0  0  0  0  0
   76.6350   38.4723   39.6195 H   0  0  0  0  0  0  0  0  0  0  0  0
   75.4577   38.7779   40.8895 H   0  0  0  0  0  0  0  0  0  0  0  0
  1  2  1  0  0  0  0
  1 21  1  0  0  0  0
  1 22  1  0  0  0  0
  2  3  1  0  0  0  0
  2 12  2  0  0  0  0
  3  9  2  0  0  0  0
  3  4  1  0  0  0  0
  4  5  2  0  0  0  0
  4  6  1  0  0  0  0
  6  7  1  0  0  0  0
 13  6  1  0  0  0  0
  7  8  2  0  0  0  0
  7  9  1  0  0  0  0
  9 10  1  0  0  0  0
 10 23  1  0  0  0  0
 10 11  2  0  0  0  0
 11 12  1  0  0  0  0
 11 24  1  0  0  0  0
 12 25  1  0  0  0  0
 13 26  1  0  0  0  0
 13 14  1  0  0  0  0
 13 20  1  0  0  0  0
 14 15  2  0  0  0  0
 14 16  1  0  0  0  0
 16 27  1  0  0  0  0
 16 17  1  0  0  0  0
 17 18  2  0  0  0  0
 17 19  1  0  0  0  0
 19 28  1  0  0  0  0
 19 29  1  0  0  0  0
 19 20  1  0  0  0  0
 20 30  1  0  0  0  0
 20 31  1  0  0  0  0
M  ZZC   1 n1
M  ZZC   2 c1
M  ZZC   3 c2
M  ZZC   4 c3
M  ZZC   5 o1
M  ZZC   6 n2
M  ZZC   7 c4
M  ZZC   8 o2
M  ZZC   9 c5
M  ZZC  10 c6
M  ZZC  11 c7
M  ZZC  12 c8
M  ZZC  13 c9
M  ZZC  14 c10
M  ZZC  15 o3
M  ZZC  16 n3
M  ZZC  17 c11
M  ZZC  18 o4
M  ZZC  19 c12
M  ZZC  20 c13
M  ZZC  21 h11
M  ZZC  22 h12
M  ZZC  23 h61
M  ZZC  24 h71
M  ZZC  25 h81
M  ZZC  26 h91
M  ZZC  27 h31
M  ZZC  28 h121
M  ZZC  29 h122
M  ZZC  30 h131
M  ZZC  31 h132
M  ZZM   1 40
M  ZZI   1 224
M  ZZM   2 37
M  ZZI   2 124
M  ZZM   3 37
M  ZZI   3 124
M  ZZM   4 3
M  ZZI   4 121
M  ZZM   5 7
M  ZZI   5 81
M  ZZM   6 10
M  ZZI   6 192
M  ZZM   7 3
M  ZZI   7 121
M  ZZM   8 7
M  ZZI   8 81
M  ZZM   9 37
M  ZZI   9 124
M  ZZM  10 37
M  ZZI  10 125
M  ZZM  11 37
M  ZZI  11 125
M  ZZM  12 37
M  ZZI  12 125
M  ZZM  13 1
M  ZZI  13 113
M  ZZM  14 3
M  ZZI  14 121
M  ZZM  15 7
M  ZZI  15 81
M  ZZM  16 10
M  ZZI  16 191
M  ZZM  17 3
M  ZZI  17 121
M  ZZM  18 7
M  ZZI  18 81
M  ZZM  19 1
M  ZZI  19 112
M  ZZM  20 1
M  ZZI  20 112
M  ZZM  21 28
M  ZZI  21 11
M  ZZM  22 28
M  ZZI  22 11
M  ZZM  23 5
M  ZZI  23 1
M  ZZM  24 5
M  ZZI  24 1
M  ZZM  25 5
M  ZZI  25 1
M  ZZM  26 5
M  ZZI  26 1
M  ZZM  27 28
M  ZZI  27 11
M  ZZM  28 5
M  ZZI  28 1
M  ZZM  29 5
M  ZZI  29 1
M  ZZM  30 5
M  ZZI  30 1
M  ZZM  31 5
M  ZZI  31 1
M  END
> <IX>
1

> <NAME>
Cereblon_5HZN_10.pdb

> <Score>
-18.780198

> <Natom>
31

> <Nflex>
1

> <Hbond>
-3.615999

> <Hphob>
-3.521639

> <VwInt>
-24.376512

> <Dsolv>
15.047552

> <SolEl>
6.302173

> <Eintl>
1.765317

> <RecConf>
ND

> <projPath>
Cereblon_maps/

> <NAME_>
Cereblon_5HZN_10.pdb

$$$$
