Cereblon_1ERR_1.pdb
  MOLSOFT 04032206183D

 30 32  0  0  1  0  0  0  0  0999 V2000
   77.5483   40.9881   42.0910 C   0  0  0  0  0  0  0  0  0  0  0  0
   76.9320   41.0735   40.8534 C   0  0  0  0  0  0  0  0  0  0  0  0
   77.2372   42.0969   39.9966 C   0  0  0  0  0  0  0  0  0  0  0  0
   76.4007   41.9546   38.7996 C   0  0  0  0  0  0  0  0  0  0  0  0
   76.4474   42.6887   37.8225 O   0  0  0  0  0  0  0  0  0  0  0  0
   75.5574   40.8832   39.0309 N   0  0  0  0  0  0  0  0  0  0  0  0
   74.2517   40.7476   38.3669 C   0  0  2  0  0  0  0  0  0  0  0  0
   73.2348   41.5213   39.1904 C   0  0  0  0  0  0  0  0  0  0  0  0
   73.5622   42.3656   40.0084 O   0  0  0  0  0  0  0  0  0  0  0  0
   71.9143   41.2508   38.9254 N   0  0  0  0  0  0  0  0  0  0  0  0
   71.3978   40.2541   38.1333 C   0  0  0  0  0  0  0  0  0  0  0  0
   70.1940   40.1433   37.9540 O   0  0  0  0  0  0  0  0  0  0  0  0
   72.4110   39.3440   37.4706 C   0  0  0  0  0  0  0  0  0  0  0  0
   73.7372   39.3198   38.2210 C   0  0  0  0  0  0  0  0  0  0  0  0
   75.8969   40.1903   40.2592 C   0  0  0  0  0  0  0  0  0  0  0  0
   78.1560   43.0864   40.3028 C   0  0  0  0  0  0  0  0  0  0  0  0
   78.7845   42.9989   41.5384 C   0  0  0  0  0  0  0  0  0  0  0  0
   78.4752   41.9674   42.4245 C   0  0  0  0  0  0  0  0  0  0  0  0
   77.3102   40.1907   42.7884 H   0  0  0  0  0  0  0  0  0  0  0  0
   74.3092   41.2485   37.3930 H   0  0  0  0  0  0  0  0  0  0  0  0
   71.2445   41.8549   39.3848 H   0  0  0  0  0  0  0  0  0  0  0  0
   71.9928   38.3333   37.4282 H   0  0  0  0  0  0  0  0  0  0  0  0
   72.5566   39.6926   36.4424 H   0  0  0  0  0  0  0  0  0  0  0  0
   73.5928   38.8598   39.2057 H   0  0  0  0  0  0  0  0  0  0  0  0
   74.4565   38.6939   37.6857 H   0  0  0  0  0  0  0  0  0  0  0  0
   76.2874   39.1958   40.0182 H   0  0  0  0  0  0  0  0  0  0  0  0
   75.0168   40.1212   40.8946 H   0  0  0  0  0  0  0  0  0  0  0  0
   78.3719   43.8970   39.6145 H   0  0  0  0  0  0  0  0  0  0  0  0
   79.5094   43.7542   41.8250 H   0  0  0  0  0  0  0  0  0  0  0  0
   78.9658   41.9287   43.3924 H   0  0  0  0  0  0  0  0  0  0  0  0
  1 19  1  0  0  0  0
  1 18  2  0  0  0  0
  1  2  1  0  0  0  0
  2  3  2  0  0  0  0
  2 15  1  0  0  0  0
  3 16  1  0  0  0  0
  3  4  1  0  0  0  0
  4  6  1  0  0  0  0
  4  5  2  0  0  0  0
  6 15  1  0  0  0  0
  7  6  1  0  0  0  0
  7 20  1  0  0  0  0
  7  8  1  0  0  0  0
  7 14  1  0  0  0  0
  8  9  2  0  0  0  0
  8 10  1  0  0  0  0
 10 21  1  0  0  0  0
 10 11  1  0  0  0  0
 11 12  2  0  0  0  0
 11 13  1  0  0  0  0
 13 22  1  0  0  0  0
 13 23  1  0  0  0  0
 13 14  1  0  0  0  0
 14 24  1  0  0  0  0
 14 25  1  0  0  0  0
 15 26  1  0  0  0  0
 15 27  1  0  0  0  0
 16 17  2  0  0  0  0
 16 28  1  0  0  0  0
 17 18  1  0  0  0  0
 17 29  1  0  0  0  0
 18 30  1  0  0  0  0
M  ZZC   1 c1
M  ZZC   2 c2
M  ZZC   3 c3
M  ZZC   4 c4
M  ZZC   5 o1
M  ZZC   6 n1
M  ZZC   7 c5
M  ZZC   8 c6
M  ZZC   9 o2
M  ZZC  10 n2
M  ZZC  11 c7
M  ZZC  12 o3
M  ZZC  13 c8
M  ZZC  14 c9
M  ZZC  15 c10
M  ZZC  16 c11
M  ZZC  17 c12
M  ZZC  18 c13
M  ZZC  19 h11
M  ZZC  20 h51
M  ZZC  21 h21
M  ZZC  22 h81
M  ZZC  23 h82
M  ZZC  24 h91
M  ZZC  25 h92
M  ZZC  26 h101
M  ZZC  27 h102
M  ZZC  28 h111
M  ZZC  29 h121
M  ZZC  30 h131
M  ZZM   1 37
M  ZZI   1 125
M  ZZM   2 37
M  ZZI   2 124
M  ZZM   3 37
M  ZZI   3 124
M  ZZM   4 3
M  ZZI   4 121
M  ZZM   5 7
M  ZZI   5 81
M  ZZM   6 10
M  ZZI   6 192
M  ZZM   7 1
M  ZZI   7 113
M  ZZM   8 3
M  ZZI   8 121
M  ZZM   9 7
M  ZZI   9 81
M  ZZM  10 10
M  ZZI  10 191
M  ZZM  11 3
M  ZZI  11 121
M  ZZM  12 7
M  ZZI  12 81
M  ZZM  13 1
M  ZZI  13 112
M  ZZM  14 1
M  ZZI  14 112
M  ZZM  15 1
M  ZZI  15 112
M  ZZM  16 37
M  ZZI  16 125
M  ZZM  17 37
M  ZZI  17 125
M  ZZM  18 37
M  ZZI  18 125
M  ZZM  19 5
M  ZZI  19 1
M  ZZM  20 5
M  ZZI  20 1
M  ZZM  21 28
M  ZZI  21 11
M  ZZM  22 5
M  ZZI  22 1
M  ZZM  23 5
M  ZZI  23 1
M  ZZM  24 5
M  ZZI  24 1
M  ZZM  25 5
M  ZZI  25 1
M  ZZM  26 5
M  ZZI  26 1
M  ZZM  27 5
M  ZZI  27 1
M  ZZM  28 5
M  ZZI  28 1
M  ZZM  29 5
M  ZZI  29 1
M  ZZM  30 5
M  ZZI  30 1
M  END
> <IX>
1

> <NAME>
Cereblon_1ERR_1.pdb

> <Score>
-15.709804

> <Natom>
30

> <Nflex>
1

> <Hbond>
-4.237495

> <Hphob>
-3.747643

> <VwInt>
-19.401798

> <Dsolv>
14.017249

> <SolEl>
4.950533

> <Eintl>
4.239148

> <RecConf>
ND

> <projPath>
Cereblon_maps/

> <NAME_>
Cereblon_1ERR_1.pdb

$$$$
