Cereblon_5V9O_8.pdb
  MOLSOFT 04032206273D

 31 33  0  0  1  0  0  0  0  0999 V2000
   78.8113   41.6758   43.8194 N   0  0  0  0  0  0  0  0  0  0  0  0
   78.9055   42.4214   42.6337 C   0  0  0  0  0  0  0  0  0  0  0  0
   78.0992   42.1572   41.5394 C   0  0  0  0  0  0  0  0  0  0  0  0
   77.1796   41.0459   41.3305 C   0  0  0  0  0  0  0  0  0  0  0  0
   76.9987   40.1622   42.1554 O   0  0  0  0  0  0  0  0  0  0  0  0
   76.6455   41.2114   40.0681 N   0  0  0  0  0  0  0  0  0  0  0  0
   77.1671   42.3324   39.4551 C   0  0  0  0  0  0  0  0  0  0  0  0
   76.9545   42.7554   38.3259 O   0  0  0  0  0  0  0  0  0  0  0  0
   78.0981   42.9270   40.4157 C   0  0  0  0  0  0  0  0  0  0  0  0
   78.9098   44.0362   40.2959 C   0  0  0  0  0  0  0  0  0  0  0  0
   79.7248   44.3357   41.3816 C   0  0  0  0  0  0  0  0  0  0  0  0
   79.7117   43.5516   42.5369 C   0  0  0  0  0  0  0  0  0  0  0  0
   75.6255   40.3755   39.4309 C   0  0  2  0  0  0  0  0  0  0  0  0
   74.2542   40.9546   39.7350 C   0  0  0  0  0  0  0  0  0  0  0  0
   74.0839   42.1346   39.9928 O   0  0  0  0  0  0  0  0  0  0  0  0
   73.1927   40.0905   39.6192 N   0  0  0  0  0  0  0  0  0  0  0  0
   73.2167   38.7529   39.3063 C   0  0  0  0  0  0  0  0  0  0  0  0
   72.1912   38.1016   39.1965 O   0  0  0  0  0  0  0  0  0  0  0  0
   74.5796   38.1527   39.0550 C   0  0  0  0  0  0  0  0  0  0  0  0
   75.6573   38.9006   39.8199 C   0  0  0  0  0  0  0  0  0  0  0  0
   79.5518   41.7562   44.5127 H   0  0  0  0  0  0  0  0  0  0  0  0
   78.3167   40.7835   43.7773 H   0  0  0  0  0  0  0  0  0  0  0  0
   78.9035   44.6445   39.3991 H   0  0  0  0  0  0  0  0  0  0  0  0
   80.3720   45.2046   41.3386 H   0  0  0  0  0  0  0  0  0  0  0  0
   80.3418   43.8332   43.3751 H   0  0  0  0  0  0  0  0  0  0  0  0
   75.7607   40.4753   38.3527 H   0  0  0  0  0  0  0  0  0  0  0  0
   72.2776   40.4935   39.7785 H   0  0  0  0  0  0  0  0  0  0  0  0
   74.5629   37.1054   39.3728 H   0  0  0  0  0  0  0  0  0  0  0  0
   74.7685   38.1770   37.9773 H   0  0  0  0  0  0  0  0  0  0  0  0
   75.4707   38.7730   40.8901 H   0  0  0  0  0  0  0  0  0  0  0  0
   76.6417   38.4684   39.6135 H   0  0  0  0  0  0  0  0  0  0  0  0
  1  2  1  0  0  0  0
  1 21  1  0  0  0  0
  1 22  1  0  0  0  0
  2  3  1  0  0  0  0
  2 12  2  0  0  0  0
  3  9  2  0  0  0  0
  3  4  1  0  0  0  0
  4  5  2  0  0  0  0
  4  6  1  0  0  0  0
  6  7  1  0  0  0  0
 13  6  1  0  0  0  0
  7  8  2  0  0  0  0
  7  9  1  0  0  0  0
  9 10  1  0  0  0  0
 10 23  1  0  0  0  0
 10 11  2  0  0  0  0
 11 12  1  0  0  0  0
 11 24  1  0  0  0  0
 12 25  1  0  0  0  0
 13 26  1  0  0  0  0
 13 14  1  0  0  0  0
 13 20  1  0  0  0  0
 14 15  2  0  0  0  0
 14 16  1  0  0  0  0
 16 27  1  0  0  0  0
 16 17  1  0  0  0  0
 17 18  2  0  0  0  0
 17 19  1  0  0  0  0
 19 28  1  0  0  0  0
 19 29  1  0  0  0  0
 19 20  1  0  0  0  0
 20 30  1  0  0  0  0
 20 31  1  0  0  0  0
M  ZZC   1 n1
M  ZZC   2 c1
M  ZZC   3 c2
M  ZZC   4 c3
M  ZZC   5 o1
M  ZZC   6 n2
M  ZZC   7 c4
M  ZZC   8 o2
M  ZZC   9 c5
M  ZZC  10 c6
M  ZZC  11 c7
M  ZZC  12 c8
M  ZZC  13 c9
M  ZZC  14 c10
M  ZZC  15 o3
M  ZZC  16 n3
M  ZZC  17 c11
M  ZZC  18 o4
M  ZZC  19 c12
M  ZZC  20 c13
M  ZZC  21 h11
M  ZZC  22 h12
M  ZZC  23 h61
M  ZZC  24 h71
M  ZZC  25 h81
M  ZZC  26 h91
M  ZZC  27 h31
M  ZZC  28 h121
M  ZZC  29 h122
M  ZZC  30 h131
M  ZZC  31 h132
M  ZZM   1 40
M  ZZI   1 224
M  ZZM   2 37
M  ZZI   2 124
M  ZZM   3 37
M  ZZI   3 124
M  ZZM   4 3
M  ZZI   4 121
M  ZZM   5 7
M  ZZI   5 81
M  ZZM   6 10
M  ZZI   6 192
M  ZZM   7 3
M  ZZI   7 121
M  ZZM   8 7
M  ZZI   8 81
M  ZZM   9 37
M  ZZI   9 124
M  ZZM  10 37
M  ZZI  10 125
M  ZZM  11 37
M  ZZI  11 125
M  ZZM  12 37
M  ZZI  12 125
M  ZZM  13 1
M  ZZI  13 113
M  ZZM  14 3
M  ZZI  14 121
M  ZZM  15 7
M  ZZI  15 81
M  ZZM  16 10
M  ZZI  16 191
M  ZZM  17 3
M  ZZI  17 121
M  ZZM  18 7
M  ZZI  18 81
M  ZZM  19 1
M  ZZI  19 112
M  ZZM  20 1
M  ZZI  20 112
M  ZZM  21 28
M  ZZI  21 11
M  ZZM  22 28
M  ZZI  22 11
M  ZZM  23 5
M  ZZI  23 1
M  ZZM  24 5
M  ZZI  24 1
M  ZZM  25 5
M  ZZI  25 1
M  ZZM  26 5
M  ZZI  26 1
M  ZZM  27 28
M  ZZI  27 11
M  ZZM  28 5
M  ZZI  28 1
M  ZZM  29 5
M  ZZI  29 1
M  ZZM  30 5
M  ZZI  30 1
M  ZZM  31 5
M  ZZI  31 1
M  END
> <IX>
1

> <NAME>
Cereblon_5V9O_8.pdb

> <Score>
-18.585827

> <Natom>
31

> <Nflex>
1

> <Hbond>
-3.711002

> <Hphob>
-3.556047

> <VwInt>
-24.246423

> <Dsolv>
15.050812

> <SolEl>
6.856935

> <Eintl>
1.697163

> <RecConf>
ND

> <projPath>
Cereblon_maps/

> <NAME_>
Cereblon_5V9O_8.pdb

$$$$
