Cereblon_6VS3_7.pdb
  MOLSOFT 04032206293D

 30 32  0  0  1  0  0  0  0  0999 V2000
   77.8680   41.4073   42.1529 C   0  0  0  0  0  0  0  0  0  0  0  0
   77.1753   41.4005   40.9530 C   0  0  0  0  0  0  0  0  0  0  0  0
   77.4244   42.3551   40.0041 C   0  0  0  0  0  0  0  0  0  0  0  0
   76.5355   42.1089   38.8616 C   0  0  0  0  0  0  0  0  0  0  0  0
   76.5328   42.7566   37.8242 O   0  0  0  0  0  0  0  0  0  0  0  0
   75.7253   41.0428   39.2082 N   0  0  0  0  0  0  0  0  0  0  0  0
   74.4348   40.7717   38.5516 C   0  0  2  0  0  0  0  0  0  0  0  0
   73.3530   41.5494   39.2768 C   0  0  0  0  0  0  0  0  0  0  0  0
   73.6086   42.4459   40.0615 O   0  0  0  0  0  0  0  0  0  0  0  0
   72.0583   41.2124   38.9671 N   0  0  0  0  0  0  0  0  0  0  0  0
   71.6201   40.1394   38.2298 C   0  0  0  0  0  0  0  0  0  0  0  0
   70.4352   39.9870   37.9693 O   0  0  0  0  0  0  0  0  0  0  0  0
   72.6986   39.1967   37.7296 C   0  0  0  0  0  0  0  0  0  0  0  0
   73.9964   39.3116   38.5254 C   0  0  0  0  0  0  0  0  0  0  0  0
   76.1085   40.4766   40.4884 C   0  0  0  0  0  0  0  0  0  0  0  0
   78.3641   43.3580   40.1768 C   0  0  0  0  0  0  0  0  0  0  0  0
   79.0733   43.3621   41.3713 C   0  0  0  0  0  0  0  0  0  0  0  0
   78.8202   42.4014   42.3502 C   0  0  0  0  0  0  0  0  0  0  0  0
   77.6722   40.6690   42.9248 H   0  0  0  0  0  0  0  0  0  0  0  0
   74.4774   41.1882   37.5387 H   0  0  0  0  0  0  0  0  0  0  0  0
   71.3459   41.8288   39.3386 H   0  0  0  0  0  0  0  0  0  0  0  0
   72.3188   38.1721   37.7915 H   0  0  0  0  0  0  0  0  0  0  0  0
   72.8780   39.4254   36.6735 H   0  0  0  0  0  0  0  0  0  0  0  0
   73.8367   38.9423   39.5453 H   0  0  0  0  0  0  0  0  0  0  0  0
   74.7684   38.6780   38.0803 H   0  0  0  0  0  0  0  0  0  0  0  0
   76.4729   39.4540   40.3431 H   0  0  0  0  0  0  0  0  0  0  0  0
   75.2562   40.5028   41.1609 H   0  0  0  0  0  0  0  0  0  0  0  0
   78.5384   44.1108   39.4152 H   0  0  0  0  0  0  0  0  0  0  0  0
   79.8189   44.1301   41.5508 H   0  0  0  0  0  0  0  0  0  0  0  0
   79.3750   42.4299   43.2831 H   0  0  0  0  0  0  0  0  0  0  0  0
  1 19  1  0  0  0  0
  1 18  2  0  0  0  0
  1  2  1  0  0  0  0
  2  3  2  0  0  0  0
  2 15  1  0  0  0  0
  3 16  1  0  0  0  0
  3  4  1  0  0  0  0
  4  6  1  0  0  0  0
  4  5  2  0  0  0  0
  6 15  1  0  0  0  0
  7  6  1  0  0  0  0
  7 20  1  0  0  0  0
  7  8  1  0  0  0  0
  7 14  1  0  0  0  0
  8  9  2  0  0  0  0
  8 10  1  0  0  0  0
 10 21  1  0  0  0  0
 10 11  1  0  0  0  0
 11 12  2  0  0  0  0
 11 13  1  0  0  0  0
 13 22  1  0  0  0  0
 13 23  1  0  0  0  0
 13 14  1  0  0  0  0
 14 24  1  0  0  0  0
 14 25  1  0  0  0  0
 15 26  1  0  0  0  0
 15 27  1  0  0  0  0
 16 17  2  0  0  0  0
 16 28  1  0  0  0  0
 17 18  1  0  0  0  0
 17 29  1  0  0  0  0
 18 30  1  0  0  0  0
M  ZZC   1 c1
M  ZZC   2 c2
M  ZZC   3 c3
M  ZZC   4 c4
M  ZZC   5 o1
M  ZZC   6 n1
M  ZZC   7 c5
M  ZZC   8 c6
M  ZZC   9 o2
M  ZZC  10 n2
M  ZZC  11 c7
M  ZZC  12 o3
M  ZZC  13 c8
M  ZZC  14 c9
M  ZZC  15 c10
M  ZZC  16 c11
M  ZZC  17 c12
M  ZZC  18 c13
M  ZZC  19 h11
M  ZZC  20 h51
M  ZZC  21 h21
M  ZZC  22 h81
M  ZZC  23 h82
M  ZZC  24 h91
M  ZZC  25 h92
M  ZZC  26 h101
M  ZZC  27 h102
M  ZZC  28 h111
M  ZZC  29 h121
M  ZZC  30 h131
M  ZZM   1 37
M  ZZI   1 125
M  ZZM   2 37
M  ZZI   2 124
M  ZZM   3 37
M  ZZI   3 124
M  ZZM   4 3
M  ZZI   4 121
M  ZZM   5 7
M  ZZI   5 81
M  ZZM   6 10
M  ZZI   6 192
M  ZZM   7 1
M  ZZI   7 113
M  ZZM   8 3
M  ZZI   8 121
M  ZZM   9 7
M  ZZI   9 81
M  ZZM  10 10
M  ZZI  10 191
M  ZZM  11 3
M  ZZI  11 121
M  ZZM  12 7
M  ZZI  12 81
M  ZZM  13 1
M  ZZI  13 112
M  ZZM  14 1
M  ZZI  14 112
M  ZZM  15 1
M  ZZI  15 112
M  ZZM  16 37
M  ZZI  16 125
M  ZZM  17 37
M  ZZI  17 125
M  ZZM  18 37
M  ZZI  18 125
M  ZZM  19 5
M  ZZI  19 1
M  ZZM  20 5
M  ZZI  20 1
M  ZZM  21 28
M  ZZI  21 11
M  ZZM  22 5
M  ZZI  22 1
M  ZZM  23 5
M  ZZI  23 1
M  ZZM  24 5
M  ZZI  24 1
M  ZZM  25 5
M  ZZI  25 1
M  ZZM  26 5
M  ZZI  26 1
M  ZZM  27 5
M  ZZI  27 1
M  ZZM  28 5
M  ZZI  28 1
M  ZZM  29 5
M  ZZI  29 1
M  ZZM  30 5
M  ZZI  30 1
M  END
> <IX>
1

> <NAME>
Cereblon_6VS3_7.pdb

> <Score>
-15.287062

> <Natom>
30

> <Nflex>
1

> <Hbond>
-4.218464

> <Hphob>
-3.73601

> <VwInt>
-19.412147

> <Dsolv>
13.803774

> <SolEl>
6.584188

> <Eintl>
3.337554

> <RecConf>
ND

> <projPath>
Cereblon_maps/

> <NAME_>
Cereblon_6VS3_7.pdb

$$$$
