Cereblon_5P9J_17.pdb
  MOLSOFT 04032206263D

 31 33  0  0  1  0  0  0  0  0999 V2000
   77.9930   40.6354   42.7161 N   0  0  0  0  0  0  0  0  0  0  0  0
   78.1420   41.6622   41.7684 C   0  0  0  0  0  0  0  0  0  0  0  0
   77.3003   41.7872   40.6721 C   0  0  0  0  0  0  0  0  0  0  0  0
   76.2278   40.9083   40.2124 C   0  0  0  0  0  0  0  0  0  0  0  0
   75.9825   39.8132   40.6986 O   0  0  0  0  0  0  0  0  0  0  0  0
   75.6102   41.5517   39.1559 N   0  0  0  0  0  0  0  0  0  0  0  0
   76.3426   42.6614   38.7848 C   0  0  0  0  0  0  0  0  0  0  0  0
   76.2433   43.3715   37.7955 O   0  0  0  0  0  0  0  0  0  0  0  0
   77.3804   42.8310   39.8016 C   0  0  0  0  0  0  0  0  0  0  0  0
   78.3226   43.8330   39.9443 C   0  0  0  0  0  0  0  0  0  0  0  0
   79.1723   43.7453   41.0397 C   0  0  0  0  0  0  0  0  0  0  0  0
   79.0650   42.6906   41.9485 C   0  0  0  0  0  0  0  0  0  0  0  0
   74.3629   41.0476   38.5533 C   0  0  1  0  0  0  0  0  0  0  0  0
   73.2237   41.3220   39.5256 C   0  0  0  0  0  0  0  0  0  0  0  0
   73.3988   41.6051   40.6982 O   0  0  0  0  0  0  0  0  0  0  0  0
   71.9549   41.1780   39.0243 N   0  0  0  0  0  0  0  0  0  0  0  0
   71.5800   40.9425   37.7271 C   0  0  0  0  0  0  0  0  0  0  0  0
   70.4186   40.6977   37.4384 O   0  0  0  0  0  0  0  0  0  0  0  0
   72.6982   40.9477   36.7051 C   0  0  0  0  0  0  0  0  0  0  0  0
   73.9369   41.6684   37.2226 C   0  0  0  0  0  0  0  0  0  0  0  0
   78.7738   40.4230   43.3358 H   0  0  0  0  0  0  0  0  0  0  0  0
   77.3612   39.8688   42.4814 H   0  0  0  0  0  0  0  0  0  0  0  0
   78.3849   44.6585   39.2436 H   0  0  0  0  0  0  0  0  0  0  0  0
   79.9141   44.5204   41.2050 H   0  0  0  0  0  0  0  0  0  0  0  0
   79.7202   42.6740   42.8138 H   0  0  0  0  0  0  0  0  0  0  0  0
   74.4571   39.9585   38.4677 H   0  0  0  0  0  0  0  0  0  0  0  0
   71.2025   41.2736   39.6939 H   0  0  0  0  0  0  0  0  0  0  0  0
   72.9335   39.9084   36.4528 H   0  0  0  0  0  0  0  0  0  0  0  0
   72.3373   41.4430   35.7979 H   0  0  0  0  0  0  0  0  0  0  0  0
   74.7328   41.6124   36.4788 H   0  0  0  0  0  0  0  0  0  0  0  0
   73.7080   42.7330   37.3511 H   0  0  0  0  0  0  0  0  0  0  0  0
  1  2  1  0  0  0  0
  1 21  1  0  0  0  0
  1 22  1  0  0  0  0
  2  3  1  0  0  0  0
  2 12  2  0  0  0  0
  3  9  2  0  0  0  0
  3  4  1  0  0  0  0
  4  5  2  0  0  0  0
  4  6  1  0  0  0  0
  6  7  1  0  0  0  0
 13  6  1  0  0  0  0
  7  8  2  0  0  0  0
  7  9  1  0  0  0  0
  9 10  1  0  0  0  0
 10 23  1  0  0  0  0
 10 11  2  0  0  0  0
 11 12  1  0  0  0  0
 11 24  1  0  0  0  0
 12 25  1  0  0  0  0
 13 26  1  0  0  0  0
 13 14  1  0  0  0  0
 13 20  1  0  0  0  0
 14 15  2  0  0  0  0
 14 16  1  0  0  0  0
 16 27  1  0  0  0  0
 16 17  1  0  0  0  0
 17 18  2  0  0  0  0
 17 19  1  0  0  0  0
 19 28  1  0  0  0  0
 19 29  1  0  0  0  0
 19 20  1  0  0  0  0
 20 30  1  0  0  0  0
 20 31  1  0  0  0  0
M  ZZC   1 n1
M  ZZC   2 c1
M  ZZC   3 c2
M  ZZC   4 c3
M  ZZC   5 o1
M  ZZC   6 n2
M  ZZC   7 c4
M  ZZC   8 o2
M  ZZC   9 c5
M  ZZC  10 c6
M  ZZC  11 c7
M  ZZC  12 c8
M  ZZC  13 c9
M  ZZC  14 c10
M  ZZC  15 o3
M  ZZC  16 n3
M  ZZC  17 c11
M  ZZC  18 o4
M  ZZC  19 c12
M  ZZC  20 c13
M  ZZC  21 h11
M  ZZC  22 h12
M  ZZC  23 h61
M  ZZC  24 h71
M  ZZC  25 h81
M  ZZC  26 h91
M  ZZC  27 h31
M  ZZC  28 h121
M  ZZC  29 h122
M  ZZC  30 h131
M  ZZC  31 h132
M  ZZM   1 40
M  ZZI   1 224
M  ZZM   2 37
M  ZZI   2 124
M  ZZM   3 37
M  ZZI   3 124
M  ZZM   4 3
M  ZZI   4 121
M  ZZM   5 7
M  ZZI   5 81
M  ZZM   6 10
M  ZZI   6 192
M  ZZM   7 3
M  ZZI   7 121
M  ZZM   8 7
M  ZZI   8 81
M  ZZM   9 37
M  ZZI   9 124
M  ZZM  10 37
M  ZZI  10 125
M  ZZM  11 37
M  ZZI  11 125
M  ZZM  12 37
M  ZZI  12 125
M  ZZM  13 1
M  ZZI  13 113
M  ZZM  14 3
M  ZZI  14 121
M  ZZM  15 7
M  ZZI  15 81
M  ZZM  16 10
M  ZZI  16 191
M  ZZM  17 3
M  ZZI  17 121
M  ZZM  18 7
M  ZZI  18 81
M  ZZM  19 1
M  ZZI  19 112
M  ZZM  20 1
M  ZZI  20 112
M  ZZM  21 28
M  ZZI  21 11
M  ZZM  22 28
M  ZZI  22 11
M  ZZM  23 5
M  ZZI  23 1
M  ZZM  24 5
M  ZZI  24 1
M  ZZM  25 5
M  ZZI  25 1
M  ZZM  26 5
M  ZZI  26 1
M  ZZM  27 28
M  ZZI  27 11
M  ZZM  28 5
M  ZZI  28 1
M  ZZM  29 5
M  ZZI  29 1
M  ZZM  30 5
M  ZZI  30 1
M  ZZM  31 5
M  ZZI  31 1
M  END
> <IX>
1

> <NAME>
Cereblon_5P9J_17.pdb

> <Score>
-14.714957

> <Natom>
31

> <Nflex>
1

> <Hbond>
-2.846655

> <Hphob>
-3.690129

> <VwInt>
-26.882503

> <Dsolv>
17.128769

> <SolEl>
7.462075

> <Eintl>
5.784037

> <RecConf>
ND

> <projPath>
Cereblon_maps/

> <NAME_>
Cereblon_5P9J_17.pdb

$$$$
