cIAP1_3ERT_3.pdb
  MOLSOFT 04032206433D

 48 48  0  0  1  0  0  0  0  0999 V2000
   25.8675   22.8896   14.5885 O   0  0  0  0  0  0  0  0  0  0  0  0
   25.0252   23.7578   14.7563 C   0  0  0  0  0  0  0  0  0  0  0  0
   23.7412   23.6994   14.2553 N   0  0  0  0  0  0  0  0  0  0  0  0
   23.2606   22.6229   13.3870 C   0  0  2  0  0  0  0  0  0  0  0  0
   23.3491   23.0871   11.9248 C   0  0  0  0  0  0  0  0  0  0  0  0
   22.4511   22.9266   11.1141 O   0  0  0  0  0  0  0  0  0  0  0  0
   24.5703   23.5789   11.5382 N   0  0  0  0  0  0  0  0  0  0  0  0
   21.8333   22.2096   13.7818 C   0  0  0  0  0  0  0  0  0  0  0  0
   21.7132   21.6034   15.1932 C   0  0  0  0  0  0  0  0  0  0  0  0
   22.5126   20.3088   15.3327 C   0  0  0  0  0  0  0  0  0  0  0  0
   20.2489   21.3339   15.5338 C   0  0  0  0  0  0  0  0  0  0  0  0
   25.3249   25.0279   15.5326 C   0  0  1  0  0  0  0  0  0  0  0  0
   24.1452   25.8198   15.7289 O   0  0  0  0  0  0  0  0  0  0  0  0
   25.9601   24.6914   16.8992 C   0  0  2  0  0  0  0  0  0  0  0  0
   24.9417   23.9684   17.7457 N   0  3  0  0  0  0  0  0  0  0  0  0
   26.4034   25.9411   17.6830 C   0  0  0  0  0  0  0  0  0  0  0  0
   27.6098   26.6240   17.0886 C   0  0  0  0  0  0  0  0  0  0  0  0
   28.8981   26.2282   17.4342 C   0  0  0  0  0  0  0  0  0  0  0  0
   30.0008   26.8513   16.8739 C   0  0  0  0  0  0  0  0  0  0  0  0
   29.8337   27.8702   15.9546 C   0  0  0  0  0  0  0  0  0  0  0  0
   28.5589   28.2703   15.6032 C   0  0  0  0  0  0  0  0  0  0  0  0
   27.4594   27.6551   16.1696 C   0  0  0  0  0  0  0  0  0  0  0  0
   23.1058   24.4652   14.4622 H   0  0  0  0  0  0  0  0  0  0  0  0
   23.9399   21.7693   13.4704 H   0  0  0  0  0  0  0  0  0  0  0  0
   24.7074   23.8920   10.5834 H   0  0  0  0  0  0  0  0  0  0  0  0
   25.3676   23.6162   12.1634 H   0  0  0  0  0  0  0  0  0  0  0  0
   21.1794   23.0849   13.7052 H   0  0  0  0  0  0  0  0  0  0  0  0
   21.4433   21.4886   13.0601 H   0  0  0  0  0  0  0  0  0  0  0  0
   22.0961   22.3170   15.9303 H   0  0  0  0  0  0  0  0  0  0  0  0
   22.3476   19.8511   16.3128 H   0  0  0  0  0  0  0  0  0  0  0  0
   23.5874   20.4869   15.2430 H   0  0  0  0  0  0  0  0  0  0  0  0
   22.2244   19.5783   14.5698 H   0  0  0  0  0  0  0  0  0  0  0  0
   19.6713   22.2610   15.5453 H   0  0  0  0  0  0  0  0  0  0  0  0
   20.1519   20.8833   16.5260 H   0  0  0  0  0  0  0  0  0  0  0  0
   19.7859   20.6549   14.8107 H   0  0  0  0  0  0  0  0  0  0  0  0
   26.0186   25.6079   14.9170 H   0  0  0  0  0  0  0  0  0  0  0  0
   23.9622   26.3118   14.9078 H   0  0  0  0  0  0  0  0  0  0  0  0
   26.7972   23.9939   16.7841 H   0  0  0  0  0  0  0  0  0  0  0  0
   25.3282   23.7532   18.6782 H   0  0  0  0  0  0  0  0  0  0  0  0
   24.6457   23.0784   17.3235 H   0  0  0  0  0  0  0  0  0  0  0  0
   24.0890   24.5239   17.8966 H   0  0  0  0  0  0  0  0  0  0  0  0
   25.5818   26.6581   17.7618 H   0  0  0  0  0  0  0  0  0  0  0  0
   26.6405   25.6705   18.7181 H   0  0  0  0  0  0  0  0  0  0  0  0
   29.0544   25.4274   18.1508 H   0  0  0  0  0  0  0  0  0  0  0  0
   31.0012   26.5367   17.1542 H   0  0  0  0  0  0  0  0  0  0  0  0
   30.6993   28.3537   15.5122 H   0  0  0  0  0  0  0  0  0  0  0  0
   28.4175   29.0652   14.8801 H   0  0  0  0  0  0  0  0  0  0  0  0
   26.4699   27.9789   15.8748 H   0  0  0  0  0  0  0  0  0  0  0  0
  1  2  2  0  0  0  0
  2  3  1  0  0  0  0
 12  2  1  0  0  0  0
  4  3  1  0  0  0  0
  3 23  1  0  0  0  0
  4  8  1  0  0  0  0
  4 24  1  0  0  0  0
  4  5  1  0  0  0  0
  5  6  2  0  0  0  0
  5  7  1  0  0  0  0
  7 25  1  0  0  0  0
  7 26  1  0  0  0  0
  8 27  1  0  0  0  0
  8 28  1  0  0  0  0
  8  9  1  0  0  0  0
  9 29  1  0  0  0  0
  9 11  1  0  0  0  0
  9 10  1  0  0  0  0
 10 30  1  0  0  0  0
 10 31  1  0  0  0  0
 10 32  1  0  0  0  0
 11 33  1  0  0  0  0
 11 34  1  0  0  0  0
 11 35  1  0  0  0  0
 12 36  1  0  0  0  0
 12 13  1  0  0  0  0
 12 14  1  0  0  0  0
 13 37  1  0  0  0  0
 14 38  1  0  0  0  0
 14 15  1  0  0  0  0
 14 16  1  0  0  0  0
 15 39  1  0  0  0  0
 15 40  1  0  0  0  0
 15 41  1  0  0  0  0
 16 42  1  0  0  0  0
 16 43  1  0  0  0  0
 16 17  1  0  0  0  0
 17 18  1  0  0  0  0
 17 22  2  0  0  0  0
 18 44  1  0  0  0  0
 18 19  2  0  0  0  0
 19 45  1  0  0  0  0
 19 20  1  0  0  0  0
 20 46  1  0  0  0  0
 20 21  2  0  0  0  0
 21 47  1  0  0  0  0
 21 22  1  0  0  0  0
 22 48  1  0  0  0  0
M  ZZC   1 o1
M  ZZC   2 c1
M  ZZC   3 n1
M  ZZC   4 c2
M  ZZC   5 c3
M  ZZC   6 o2
M  ZZC   7 n2
M  ZZC   8 c4
M  ZZC   9 c5
M  ZZC  10 c6
M  ZZC  11 c7
M  ZZC  12 c8
M  ZZC  13 o3
M  ZZC  14 c9
M  ZZC  15 n3
M  ZZC  16 c10
M  ZZC  17 c11
M  ZZC  18 c12
M  ZZC  19 c13
M  ZZC  20 c14
M  ZZC  21 c15
M  ZZC  22 c16
M  ZZC  23 h11
M  ZZC  24 h21
M  ZZC  25 h01
M  ZZC  26 h22
M  ZZC  27 h41
M  ZZC  28 h42
M  ZZC  29 h51
M  ZZC  30 h61
M  ZZC  31 h62
M  ZZC  32 h63
M  ZZC  33 h71
M  ZZC  34 h72
M  ZZC  35 h73
M  ZZC  36 h81
M  ZZC  37 h31
M  ZZC  38 h91
M  ZZC  39 h02
M  ZZC  40 h32
M  ZZC  41 h33
M  ZZC  42 h101
M  ZZC  43 h102
M  ZZC  44 h121
M  ZZC  45 h131
M  ZZC  46 h141
M  ZZC  47 h151
M  ZZC  48 h161
M  ZZM   1 7
M  ZZI   1 81
M  ZZM   2 3
M  ZZI   2 121
M  ZZM   3 10
M  ZZI   3 211
M  ZZM   4 1
M  ZZI   4 113
M  ZZM   5 3
M  ZZI   5 121
M  ZZM   6 7
M  ZZI   6 81
M  ZZM   7 10
M  ZZI   7 212
M  ZZM   8 1
M  ZZI   8 112
M  ZZM   9 1
M  ZZI   9 113
M  ZZM  10 1
M  ZZI  10 111
M  ZZM  11 1
M  ZZI  11 111
M  ZZM  12 1
M  ZZI  12 113
M  ZZM  13 6
M  ZZI  13 60
M  ZZM  14 1
M  ZZI  14 113
M  ZZM  15 34
M  ZZI  15 231
M  ZZM  16 1
M  ZZI  16 112
M  ZZM  17 37
M  ZZI  17 124
M  ZZM  18 37
M  ZZI  18 125
M  ZZM  19 37
M  ZZI  19 125
M  ZZM  20 37
M  ZZI  20 125
M  ZZM  21 37
M  ZZI  21 125
M  ZZM  22 37
M  ZZI  22 125
M  ZZM  23 28
M  ZZI  23 11
M  ZZM  24 5
M  ZZI  24 1
M  ZZM  25 28
M  ZZI  25 11
M  ZZM  26 28
M  ZZI  26 11
M  ZZM  27 5
M  ZZI  27 1
M  ZZM  28 5
M  ZZI  28 1
M  ZZM  29 5
M  ZZI  29 1
M  ZZM  30 5
M  ZZI  30 1
M  ZZM  31 5
M  ZZI  31 1
M  ZZM  32 5
M  ZZI  32 1
M  ZZM  33 5
M  ZZI  33 1
M  ZZM  34 5
M  ZZI  34 1
M  ZZM  35 5
M  ZZI  35 1
M  ZZM  36 5
M  ZZI  36 1
M  ZZM  37 21
M  ZZI  37 20
M  ZZM  38 5
M  ZZI  38 1
M  ZZM  39 36
M  ZZI  39 17
M  ZZM  40 36
M  ZZI  40 17
M  ZZM  41 36
M  ZZI  41 17
M  ZZM  42 5
M  ZZI  42 1
M  ZZM  43 5
M  ZZI  43 1
M  ZZM  44 5
M  ZZI  44 1
M  ZZM  45 5
M  ZZI  45 1
M  ZZM  46 5
M  ZZI  46 1
M  ZZM  47 5
M  ZZI  47 1
M  ZZM  48 5
M  ZZI  48 1
M  CHG  1  15   1
M  END
> <IX>
1

> <NAME>
cIAP1_3ERT_3.pdb

> <Score>
-10.13865

> <Natom>
48

> <Nflex>
9

> <Hbond>
-3.648674

> <Hphob>
-3.869568

> <VwInt>
-19.385735

> <Dsolv>
10.778154

> <SolEl>
6.365073

> <Eintl>
5.643794

> <RecConf>
ND

> <projPath>
cIAP1_maps/

> <NAME_>
cIAP1_3ERT_3.pdb

$$$$
