cIAP1_3CBS_2.pdb
  MOLSOFT 04032206443D

 48 48  0  0  1  0  0  0  0  0999 V2000
   13.6560   47.2196    9.4173 O   0  0  0  0  0  0  0  0  0  0  0  0
   14.8447   46.9879    9.2565 C   0  0  0  0  0  0  0  0  0  0  0  0
   15.3397   45.9071    8.5426 N   0  0  0  0  0  0  0  0  0  0  0  0
   14.4829   44.9736    7.8107 C   0  0  2  0  0  0  0  0  0  0  0  0
   13.7767   44.0541    8.8135 C   0  0  0  0  0  0  0  0  0  0  0  0
   14.3199   43.6140    9.8143 O   0  0  0  0  0  0  0  0  0  0  0  0
   12.4840   43.7285    8.4937 N   0  0  0  0  0  0  0  0  0  0  0  0
   15.3395   44.1192    6.8558 C   0  0  0  0  0  0  0  0  0  0  0  0
   14.5532   43.4664    5.7052 C   0  0  0  0  0  0  0  0  0  0  0  0
   15.3702   42.3421    5.0750 C   0  0  0  0  0  0  0  0  0  0  0  0
   14.1788   44.4903    4.6342 C   0  0  0  0  0  0  0  0  0  0  0  0
   15.9376   47.8896    9.8171 C   0  0  1  0  0  0  0  0  0  0  0  0
   16.2217   48.9212    8.8594 O   0  0  0  0  0  0  0  0  0  0  0  0
   15.5512   48.5481   11.1559 C   0  0  2  0  0  0  0  0  0  0  0  0
   16.6617   49.4914   11.5426 N   0  3  0  0  0  0  0  0  0  0  0  0
   15.3661   47.5068   12.2688 C   0  0  0  0  0  0  0  0  0  0  0  0
   15.3054   48.0637   13.6688 C   0  0  0  0  0  0  0  0  0  0  0  0
   14.1173   48.5707   14.1824 C   0  0  0  0  0  0  0  0  0  0  0  0
   14.0720   49.0818   15.4682 C   0  0  0  0  0  0  0  0  0  0  0  0
   15.2136   49.1077   16.2494 C   0  0  0  0  0  0  0  0  0  0  0  0
   16.4012   48.6121   15.7466 C   0  0  0  0  0  0  0  0  0  0  0  0
   16.4434   48.0802   14.4721 C   0  0  0  0  0  0  0  0  0  0  0  0
   16.3418   45.7414    8.4982 H   0  0  0  0  0  0  0  0  0  0  0  0
   13.7365   45.5705    7.2766 H   0  0  0  0  0  0  0  0  0  0  0  0
   11.9622   43.1144    9.1085 H   0  0  0  0  0  0  0  0  0  0  0  0
   12.0094   44.0806    7.6700 H   0  0  0  0  0  0  0  0  0  0  0  0
   16.1370   44.7370    6.4267 H   0  0  0  0  0  0  0  0  0  0  0  0
   15.8540   43.3444    7.4365 H   0  0  0  0  0  0  0  0  0  0  0  0
   13.6321   43.0205    6.0916 H   0  0  0  0  0  0  0  0  0  0  0  0
   14.8484   41.8989    4.2217 H   0  0  0  0  0  0  0  0  0  0  0  0
   15.5462   41.5431    5.7997 H   0  0  0  0  0  0  0  0  0  0  0  0
   16.3418   42.7021    4.7251 H   0  0  0  0  0  0  0  0  0  0  0  0
   13.5513   45.2825    5.0538 H   0  0  0  0  0  0  0  0  0  0  0  0
   13.6215   44.0243    3.8151 H   0  0  0  0  0  0  0  0  0  0  0  0
   15.0639   44.9682    4.2063 H   0  0  0  0  0  0  0  0  0  0  0  0
   16.8483   47.3084    9.9535 H   0  0  0  0  0  0  0  0  0  0  0  0
   16.5588   48.4986    8.0468 H   0  0  0  0  0  0  0  0  0  0  0  0
   14.6633   49.1813   11.0472 H   0  0  0  0  0  0  0  0  0  0  0  0
   17.5111   48.9927   11.8464 H   0  0  0  0  0  0  0  0  0  0  0  0
   16.3852   50.1104   12.3171 H   0  0  0  0  0  0  0  0  0  0  0  0
   16.9173   50.0925   10.7453 H   0  0  0  0  0  0  0  0  0  0  0  0
   14.4517   46.9412   12.0769 H   0  0  0  0  0  0  0  0  0  0  0  0
   16.1824   46.7809   12.2229 H   0  0  0  0  0  0  0  0  0  0  0  0
   13.2106   48.5594   13.5846 H   0  0  0  0  0  0  0  0  0  0  0  0
   13.1376   49.4654   15.8659 H   0  0  0  0  0  0  0  0  0  0  0  0
   15.1784   49.5134   17.2557 H   0  0  0  0  0  0  0  0  0  0  0  0
   17.3009   48.6358   16.3534 H   0  0  0  0  0  0  0  0  0  0  0  0
   17.3823   47.6769   14.1077 H   0  0  0  0  0  0  0  0  0  0  0  0
  1  2  2  0  0  0  0
  2  3  1  0  0  0  0
 12  2  1  0  0  0  0
  4  3  1  0  0  0  0
  3 23  1  0  0  0  0
  4  8  1  0  0  0  0
  4 24  1  0  0  0  0
  4  5  1  0  0  0  0
  5  6  2  0  0  0  0
  5  7  1  0  0  0  0
  7 25  1  0  0  0  0
  7 26  1  0  0  0  0
  8 27  1  0  0  0  0
  8 28  1  0  0  0  0
  8  9  1  0  0  0  0
  9 29  1  0  0  0  0
  9 11  1  0  0  0  0
  9 10  1  0  0  0  0
 10 30  1  0  0  0  0
 10 31  1  0  0  0  0
 10 32  1  0  0  0  0
 11 33  1  0  0  0  0
 11 34  1  0  0  0  0
 11 35  1  0  0  0  0
 12 36  1  0  0  0  0
 12 13  1  0  0  0  0
 12 14  1  0  0  0  0
 13 37  1  0  0  0  0
 14 38  1  0  0  0  0
 14 15  1  0  0  0  0
 14 16  1  0  0  0  0
 15 39  1  0  0  0  0
 15 40  1  0  0  0  0
 15 41  1  0  0  0  0
 16 42  1  0  0  0  0
 16 43  1  0  0  0  0
 16 17  1  0  0  0  0
 17 18  1  0  0  0  0
 17 22  2  0  0  0  0
 18 44  1  0  0  0  0
 18 19  2  0  0  0  0
 19 45  1  0  0  0  0
 19 20  1  0  0  0  0
 20 46  1  0  0  0  0
 20 21  2  0  0  0  0
 21 47  1  0  0  0  0
 21 22  1  0  0  0  0
 22 48  1  0  0  0  0
M  ZZC   1 o1
M  ZZC   2 c1
M  ZZC   3 n1
M  ZZC   4 c2
M  ZZC   5 c3
M  ZZC   6 o2
M  ZZC   7 n2
M  ZZC   8 c4
M  ZZC   9 c5
M  ZZC  10 c6
M  ZZC  11 c7
M  ZZC  12 c8
M  ZZC  13 o3
M  ZZC  14 c9
M  ZZC  15 n3
M  ZZC  16 c10
M  ZZC  17 c11
M  ZZC  18 c12
M  ZZC  19 c13
M  ZZC  20 c14
M  ZZC  21 c15
M  ZZC  22 c16
M  ZZC  23 h11
M  ZZC  24 h21
M  ZZC  25 h01
M  ZZC  26 h22
M  ZZC  27 h41
M  ZZC  28 h42
M  ZZC  29 h51
M  ZZC  30 h61
M  ZZC  31 h62
M  ZZC  32 h63
M  ZZC  33 h71
M  ZZC  34 h72
M  ZZC  35 h73
M  ZZC  36 h81
M  ZZC  37 h31
M  ZZC  38 h91
M  ZZC  39 h02
M  ZZC  40 h32
M  ZZC  41 h33
M  ZZC  42 h101
M  ZZC  43 h102
M  ZZC  44 h121
M  ZZC  45 h131
M  ZZC  46 h141
M  ZZC  47 h151
M  ZZC  48 h161
M  ZZM   1 7
M  ZZI   1 81
M  ZZM   2 3
M  ZZI   2 121
M  ZZM   3 10
M  ZZI   3 211
M  ZZM   4 1
M  ZZI   4 113
M  ZZM   5 3
M  ZZI   5 121
M  ZZM   6 7
M  ZZI   6 81
M  ZZM   7 10
M  ZZI   7 212
M  ZZM   8 1
M  ZZI   8 112
M  ZZM   9 1
M  ZZI   9 113
M  ZZM  10 1
M  ZZI  10 111
M  ZZM  11 1
M  ZZI  11 111
M  ZZM  12 1
M  ZZI  12 113
M  ZZM  13 6
M  ZZI  13 60
M  ZZM  14 1
M  ZZI  14 113
M  ZZM  15 34
M  ZZI  15 231
M  ZZM  16 1
M  ZZI  16 112
M  ZZM  17 37
M  ZZI  17 124
M  ZZM  18 37
M  ZZI  18 125
M  ZZM  19 37
M  ZZI  19 125
M  ZZM  20 37
M  ZZI  20 125
M  ZZM  21 37
M  ZZI  21 125
M  ZZM  22 37
M  ZZI  22 125
M  ZZM  23 28
M  ZZI  23 11
M  ZZM  24 5
M  ZZI  24 1
M  ZZM  25 28
M  ZZI  25 11
M  ZZM  26 28
M  ZZI  26 11
M  ZZM  27 5
M  ZZI  27 1
M  ZZM  28 5
M  ZZI  28 1
M  ZZM  29 5
M  ZZI  29 1
M  ZZM  30 5
M  ZZI  30 1
M  ZZM  31 5
M  ZZI  31 1
M  ZZM  32 5
M  ZZI  32 1
M  ZZM  33 5
M  ZZI  33 1
M  ZZM  34 5
M  ZZI  34 1
M  ZZM  35 5
M  ZZI  35 1
M  ZZM  36 5
M  ZZI  36 1
M  ZZM  37 21
M  ZZI  37 20
M  ZZM  38 5
M  ZZI  38 1
M  ZZM  39 36
M  ZZI  39 17
M  ZZM  40 36
M  ZZI  40 17
M  ZZM  41 36
M  ZZI  41 17
M  ZZM  42 5
M  ZZI  42 1
M  ZZM  43 5
M  ZZI  43 1
M  ZZM  44 5
M  ZZI  44 1
M  ZZM  45 5
M  ZZI  45 1
M  ZZM  46 5
M  ZZI  46 1
M  ZZM  47 5
M  ZZI  47 1
M  ZZM  48 5
M  ZZI  48 1
M  CHG  1  15   1
M  END
> <IX>
1

> <NAME>
cIAP1_3CBS_2.pdb

> <Score>
-6.945077

> <Natom>
48

> <Nflex>
9

> <Hbond>
-3.942385

> <Hphob>
-3.891784

> <VwInt>
-15.205211

> <Dsolv>
11.676047

> <SolEl>
4.66374

> <Eintl>
6.011267

> <RecConf>
ND

> <projPath>
cIAP1_maps/

> <NAME_>
cIAP1_3CBS_2.pdb

$$$$
