IAPBIR2_4QNQ_65.pdb
  MOLSOFT 04032206363D

 71 74  0  0  1  0  0  0  0  0999 V2000
    7.3598   42.7729   25.4939 O   0  0  0  0  0  0  0  0  0  0  0  0
    8.0400   43.3513   24.4362 C   0  0  0  0  0  0  0  0  0  0  0  0
    9.3650   43.7025   24.6003 C   0  0  0  0  0  0  0  0  0  0  0  0
   10.0832   44.2685   23.5503 C   0  0  0  0  0  0  0  0  0  0  0  0
    9.4236   44.5380   22.3423 C   0  0  0  0  0  0  0  0  0  0  0  0
   10.1366   45.2925   21.2458 C   0  0  2  0  0  0  0  0  0  0  0  0
    9.6411   45.0068   19.9101 N   0  0  0  0  0  0  0  0  0  0  0  0
    9.2314   46.0272   19.0692 C   0  0  0  0  0  0  0  0  0  0  0  0
    9.0521   47.1788   19.4428 O   0  0  0  0  0  0  0  0  0  0  0  0
    9.1029   45.5926   17.6050 C   0  0  1  0  0  0  0  0  0  0  0  0
    7.6635   45.6393   17.0532 C   0  0  0  0  0  0  0  0  0  0  0  0
    6.8350   46.8410   17.5491 C   0  0  0  0  0  0  0  0  0  0  0  0
    6.8730   44.3677   17.3897 C   0  0  0  0  0  0  0  0  0  0  0  0
    7.9342   45.7826   15.5491 C   0  0  0  0  0  0  0  0  0  0  0  0
    9.1702   46.6727   15.4562 C   0  0  1  0  0  0  0  0  0  0  0  0
    8.7826   48.0450   15.3369 O   0  0  0  0  0  0  0  0  0  0  0  0
    9.8170   48.8937   14.8175 C   0  0  0  0  0  0  0  0  0  0  0  0
   10.9525   49.1235   15.8116 C   0  0  0  0  0  0  0  0  0  0  0  0
   11.8003   47.8672   16.0180 C   0  0  1  0  0  0  0  0  0  0  0  0
   13.1184   48.1632   16.5899 N   0  0  0  0  0  0  0  0  0  0  0  0
   14.1619   48.7195   15.8675 C   0  0  0  0  0  0  0  0  0  0  0  0
   14.0390   49.1829   14.7435 O   0  0  0  0  0  0  0  0  0  0  0  0
   15.5068   48.6659   16.6021 C   0  0  2  0  0  0  0  0  0  0  0  0
   15.7042   49.8001   17.5943 N   0  3  0  0  0  0  0  0  0  0  0  0
   16.6958   49.5060   18.6792 C   0  0  0  0  0  0  0  0  0  0  0  0
   16.6696   48.6553   15.6091 C   0  0  0  0  0  0  0  0  0  0  0  0
   11.1358   46.9036   17.0034 C   0  0  0  0  0  0  0  0  0  0  0  0
   11.7216   46.5539   18.0177 O   0  0  0  0  0  0  0  0  0  0  0  0
    9.8482   46.4793   16.7149 N   0  0  0  0  0  0  0  0  0  0  0  0
   11.6356   45.0241   21.2865 C   0  0  0  0  0  0  0  0  0  0  0  0
   12.1851   45.3837   22.6481 C   0  0  0  0  0  0  0  0  0  0  0  0
   11.5597   44.5285   23.7360 C   0  0  0  0  0  0  0  0  0  0  0  0
    8.0777   44.1954   22.2100 C   0  0  0  0  0  0  0  0  0  0  0  0
    7.3936   43.5777   23.2381 C   0  0  0  0  0  0  0  0  0  0  0  0
    6.5329   42.4086   25.1228 H   0  0  0  0  0  0  0  0  0  0  0  0
    9.8457   43.5319   25.5568 H   0  0  0  0  0  0  0  0  0  0  0  0
    9.9767   46.3577   21.4466 H   0  0  0  0  0  0  0  0  0  0  0  0
    9.7164   44.0556   19.5700 H   0  0  0  0  0  0  0  0  0  0  0  0
    9.5458   44.5966   17.4781 H   0  0  0  0  0  0  0  0  0  0  0  0
    6.5702   46.7398   18.6063 H   0  0  0  0  0  0  0  0  0  0  0  0
    5.8941   46.9225   16.9956 H   0  0  0  0  0  0  0  0  0  0  0  0
    7.3581   47.7942   17.4346 H   0  0  0  0  0  0  0  0  0  0  0  0
    5.9094   44.3517   16.8709 H   0  0  0  0  0  0  0  0  0  0  0  0
    6.6768   44.2966   18.4640 H   0  0  0  0  0  0  0  0  0  0  0  0
    7.4036   43.4590   17.1108 H   0  0  0  0  0  0  0  0  0  0  0  0
    8.1681   44.8034   15.1196 H   0  0  0  0  0  0  0  0  0  0  0  0
    7.0801   46.1863   14.9950 H   0  0  0  0  0  0  0  0  0  0  0  0
    9.8053   46.3751   14.6137 H   0  0  0  0  0  0  0  0  0  0  0  0
   10.1840   48.4978   13.8640 H   0  0  0  0  0  0  0  0  0  0  0  0
    9.3458   49.8559   14.5972 H   0  0  0  0  0  0  0  0  0  0  0  0
   11.5767   49.9380   15.4320 H   0  0  0  0  0  0  0  0  0  0  0  0
   10.5415   49.4560   16.7715 H   0  0  0  0  0  0  0  0  0  0  0  0
   11.9688   47.3585   15.0674 H   0  0  0  0  0  0  0  0  0  0  0  0
   13.2764   47.8367   17.5417 H   0  0  0  0  0  0  0  0  0  0  0  0
   15.5019   47.7472   17.1918 H   0  0  0  0  0  0  0  0  0  0  0  0
   15.9981   50.6609   17.1100 H   0  0  0  0  0  0  0  0  0  0  0  0
   14.8082   50.0343   18.0429 H   0  0  0  0  0  0  0  0  0  0  0  0
   16.3392   48.6322   19.2290 H   0  0  0  0  0  0  0  0  0  0  0  0
   16.7645   50.3717   19.3419 H   0  0  0  0  0  0  0  0  0  0  0  0
   17.6620   49.2918   18.2132 H   0  0  0  0  0  0  0  0  0  0  0  0
   17.6157   48.4713   16.1284 H   0  0  0  0  0  0  0  0  0  0  0  0
   16.7652   49.6102   15.0855 H   0  0  0  0  0  0  0  0  0  0  0  0
   16.5518   47.8722   14.8538 H   0  0  0  0  0  0  0  0  0  0  0  0
   11.8497   43.9731   21.0590 H   0  0  0  0  0  0  0  0  0  0  0  0
   12.1496   45.6189   20.5276 H   0  0  0  0  0  0  0  0  0  0  0  0
   13.2676   45.2441   22.6428 H   0  0  0  0  0  0  0  0  0  0  0  0
   12.0005   46.4436   22.8533 H   0  0  0  0  0  0  0  0  0  0  0  0
   11.7428   44.9904   24.7088 H   0  0  0  0  0  0  0  0  0  0  0  0
   12.0840   43.5719   23.7494 H   0  0  0  0  0  0  0  0  0  0  0  0
    7.5398   44.4152   21.2932 H   0  0  0  0  0  0  0  0  0  0  0  0
    6.3520   43.3030   23.1066 H   0  0  0  0  0  0  0  0  0  0  0  0
  1 35  1  0  0  0  0
  1  2  1  0  0  0  0
  2  3  1  0  0  0  0
  2 34  2  0  0  0  0
  3 36  1  0  0  0  0
  3  4  2  0  0  0  0
  4 32  1  0  0  0  0
  4  5  1  0  0  0  0
  6  5  1  0  0  0  0
  5 33  2  0  0  0  0
  6 30  1  0  0  0  0
  6 37  1  0  0  0  0
  6  7  1  0  0  0  0
  7 38  1  0  0  0  0
  7  8  1  0  0  0  0
  8  9  2  0  0  0  0
 10  8  1  0  0  0  0
 10 39  1  0  0  0  0
 10 11  1  0  0  0  0
 10 29  1  0  0  0  0
 11 13  1  0  0  0  0
 11 12  1  0  0  0  0
 11 14  1  0  0  0  0
 12 40  1  0  0  0  0
 12 41  1  0  0  0  0
 12 42  1  0  0  0  0
 13 43  1  0  0  0  0
 13 44  1  0  0  0  0
 13 45  1  0  0  0  0
 14 46  1  0  0  0  0
 14 47  1  0  0  0  0
 15 14  1  0  0  0  0
 15 48  1  0  0  0  0
 15 29  1  0  0  0  0
 15 16  1  0  0  0  0
 16 17  1  0  0  0  0
 17 18  1  0  0  0  0
 17 49  1  0  0  0  0
 17 50  1  0  0  0  0
 19 18  1  0  0  0  0
 18 51  1  0  0  0  0
 18 52  1  0  0  0  0
 19 27  1  0  0  0  0
 19 53  1  0  0  0  0
 19 20  1  0  0  0  0
 20 54  1  0  0  0  0
 20 21  1  0  0  0  0
 21 22  2  0  0  0  0
 23 21  1  0  0  0  0
 23 55  1  0  0  0  0
 23 26  1  0  0  0  0
 23 24  1  0  0  0  0
 24 56  1  0  0  0  0
 24 57  1  0  0  0  0
 24 25  1  0  0  0  0
 25 58  1  0  0  0  0
 25 59  1  0  0  0  0
 25 60  1  0  0  0  0
 26 61  1  0  0  0  0
 26 62  1  0  0  0  0
 26 63  1  0  0  0  0
 27 29  1  0  0  0  0
 27 28  2  0  0  0  0
 30 31  1  0  0  0  0
 30 64  1  0  0  0  0
 30 65  1  0  0  0  0
 31 32  1  0  0  0  0
 31 66  1  0  0  0  0
 31 67  1  0  0  0  0
 32 68  1  0  0  0  0
 32 69  1  0  0  0  0
 33 70  1  0  0  0  0
 33 34  1  0  0  0  0
 34 71  1  0  0  0  0
M  ZZC   1 o1
M  ZZC   2 c1
M  ZZC   3 c2
M  ZZC   4 c3
M  ZZC   5 c4
M  ZZC   6 c5
M  ZZC   7 n1
M  ZZC   8 c6
M  ZZC   9 o2
M  ZZC  10 c7
M  ZZC  11 c8
M  ZZC  12 c9
M  ZZC  13 c10
M  ZZC  14 c11
M  ZZC  15 c12
M  ZZC  16 o3
M  ZZC  17 c13
M  ZZC  18 c14
M  ZZC  19 c15
M  ZZC  20 n2
M  ZZC  21 c16
M  ZZC  22 o4
M  ZZC  23 c17
M  ZZC  24 n3
M  ZZC  25 c18
M  ZZC  26 c19
M  ZZC  27 c20
M  ZZC  28 o5
M  ZZC  29 n4
M  ZZC  30 c21
M  ZZC  31 c22
M  ZZC  32 c23
M  ZZC  33 c24
M  ZZC  34 c25
M  ZZC  35 h11
M  ZZC  36 h21
M  ZZC  37 h51
M  ZZC  38 h01
M  ZZC  39 h71
M  ZZC  40 h91
M  ZZC  41 h92
M  ZZC  42 h93
M  ZZC  43 h101
M  ZZC  44 h102
M  ZZC  45 h103
M  ZZC  46 h111
M  ZZC  47 h112
M  ZZC  48 h121
M  ZZC  49 h131
M  ZZC  50 h132
M  ZZC  51 h141
M  ZZC  52 h142
M  ZZC  53 h151
M  ZZC  54 h02
M  ZZC  55 h171
M  ZZC  56 h31
M  ZZC  57 h32
M  ZZC  58 h181
M  ZZC  59 h182
M  ZZC  60 h183
M  ZZC  61 h191
M  ZZC  62 h192
M  ZZC  63 h193
M  ZZC  64 h211
M  ZZC  65 h212
M  ZZC  66 h221
M  ZZC  67 h222
M  ZZC  68 h231
M  ZZC  69 h232
M  ZZC  70 h241
M  ZZC  71 h251
M  ZZM   1 6
M  ZZI   1 62
M  ZZM   2 37
M  ZZI   2 124
M  ZZM   3 37
M  ZZI   3 125
M  ZZM   4 37
M  ZZI   4 124
M  ZZM   5 37
M  ZZI   5 124
M  ZZM   6 1
M  ZZI   6 113
M  ZZM   7 10
M  ZZI   7 211
M  ZZM   8 3
M  ZZI   8 121
M  ZZM   9 7
M  ZZI   9 81
M  ZZM  10 1
M  ZZI  10 113
M  ZZM  11 1
M  ZZI  11 110
M  ZZM  12 1
M  ZZI  12 111
M  ZZM  13 1
M  ZZI  13 111
M  ZZM  14 1
M  ZZI  14 112
M  ZZM  15 1
M  ZZI  15 113
M  ZZM  16 6
M  ZZI  16 65
M  ZZM  17 1
M  ZZI  17 112
M  ZZM  18 1
M  ZZI  18 112
M  ZZM  19 1
M  ZZI  19 113
M  ZZM  20 10
M  ZZI  20 211
M  ZZM  21 3
M  ZZI  21 121
M  ZZM  22 7
M  ZZI  22 81
M  ZZM  23 1
M  ZZI  23 113
M  ZZM  24 34
M  ZZI  24 231
M  ZZM  25 1
M  ZZI  25 111
M  ZZM  26 1
M  ZZI  26 111
M  ZZM  27 3
M  ZZI  27 121
M  ZZM  28 7
M  ZZI  28 81
M  ZZM  29 10
M  ZZI  29 192
M  ZZM  30 1
M  ZZI  30 112
M  ZZM  31 1
M  ZZI  31 112
M  ZZM  32 1
M  ZZI  32 112
M  ZZM  33 37
M  ZZI  33 125
M  ZZM  34 37
M  ZZI  34 125
M  ZZM  35 29
M  ZZI  35 27
M  ZZM  36 5
M  ZZI  36 1
M  ZZM  37 5
M  ZZI  37 1
M  ZZM  38 28
M  ZZI  38 11
M  ZZM  39 5
M  ZZI  39 1
M  ZZM  40 5
M  ZZI  40 1
M  ZZM  41 5
M  ZZI  41 1
M  ZZM  42 5
M  ZZI  42 1
M  ZZM  43 5
M  ZZI  43 1
M  ZZM  44 5
M  ZZI  44 1
M  ZZM  45 5
M  ZZI  45 1
M  ZZM  46 5
M  ZZI  46 1
M  ZZM  47 5
M  ZZI  47 1
M  ZZM  48 5
M  ZZI  48 1
M  ZZM  49 5
M  ZZI  49 1
M  ZZM  50 5
M  ZZI  50 1
M  ZZM  51 5
M  ZZI  51 1
M  ZZM  52 5
M  ZZI  52 1
M  ZZM  53 5
M  ZZI  53 1
M  ZZM  54 28
M  ZZI  54 11
M  ZZM  55 5
M  ZZI  55 1
M  ZZM  56 36
M  ZZI  56 17
M  ZZM  57 36
M  ZZI  57 17
M  ZZM  58 5
M  ZZI  58 1
M  ZZM  59 5
M  ZZI  59 1
M  ZZM  60 5
M  ZZI  60 1
M  ZZM  61 5
M  ZZI  61 1
M  ZZM  62 5
M  ZZI  62 1
M  ZZM  63 5
M  ZZI  63 1
M  ZZM  64 5
M  ZZI  64 1
M  ZZM  65 5
M  ZZI  65 1
M  ZZM  66 5
M  ZZI  66 1
M  ZZM  67 5
M  ZZI  67 1
M  ZZM  68 5
M  ZZI  68 1
M  ZZM  69 5
M  ZZI  69 1
M  ZZM  70 5
M  ZZI  70 1
M  ZZM  71 5
M  ZZI  71 1
M  CHG  1  24   1
M  END
> <IX>
1

> <NAME>
IAPBIR2_4QNQ_65.pdb

> <Score>
-22.924885

> <Natom>
71

> <Nflex>
5

> <Hbond>
-3.673941

> <Hphob>
-6.045903

> <VwInt>
-48.173614

> <Dsolv>
14.831435

> <SolEl>
23.754938

> <Eintl>
14.654533

> <RecConf>
ND

> <projPath>
IAPBIR2_maps/

> <NAME_>
IAPBIR2_4QNQ_65.pdb

$$$$
