IAPBIR2_6XJK_10.pdb
  MOLSOFT 04032206403D

 82 85  0  0  1  0  0  0  0  0999 V2000
   28.1273   26.5547   17.9227 C   0  0  0  0  0  0  0  0  0  0  0  0
   26.7211   26.1072   18.2058 C   0  0  0  0  0  0  0  0  0  0  0  0
   26.1745   26.3288   19.2761 O   0  0  0  0  0  0  0  0  0  0  0  0
   26.1531   25.4426   17.1387 N   0  0  0  0  0  0  0  0  0  0  0  0
   24.7449   25.0816   17.0904 C   0  0  2  0  0  0  0  0  0  0  0  0
   24.4998   23.5730   17.1698 C   0  0  0  0  0  0  0  0  0  0  0  0
   23.9947   23.1814   15.8610 N   0  0  0  0  0  0  0  0  0  0  0  0
   23.4503   21.9677   15.4517 C   0  0  0  0  0  0  0  0  0  0  0  0
   23.4391   21.6751   14.2630 O   0  0  0  0  0  0  0  0  0  0  0  0
   22.9608   20.9709   16.5179 C   0  0  1  0  0  0  0  0  0  0  0  0
   22.1889   21.6282   17.5837 N   0  0  0  0  0  0  0  0  0  0  0  0
   22.1471   21.1534   18.8870 C   0  0  0  0  0  0  0  0  0  0  0  0
   22.7870   20.1881   19.2778 O   0  0  0  0  0  0  0  0  0  0  0  0
   21.1907   21.9108   19.8170 C   0  0  1  0  0  0  0  0  0  0  0  0
   19.9239   21.1281   20.1100 N   0  3  0  0  0  0  0  0  0  0  0  0
   19.0356   20.8695   18.9363 C   0  0  0  0  0  0  0  0  0  0  0  0
   21.8792   22.2047   21.1434 C   0  0  0  0  0  0  0  0  0  0  0  0
   22.1351   19.8610   15.8177 C   0  0  0  0  0  0  0  0  0  0  0  0
   21.9824   18.6026   16.6783 C   0  0  0  0  0  0  0  0  0  0  0  0
   21.2373   17.5121   15.9264 C   0  0  0  0  0  0  0  0  0  0  0  0
   19.8706   18.0052   15.4886 C   0  0  0  0  0  0  0  0  0  0  0  0
   19.9602   19.2695   14.6543 C   0  0  0  0  0  0  0  0  0  0  0  0
   20.7624   20.3663   15.3354 C   0  0  0  0  0  0  0  0  0  0  0  0
   24.1730   24.2437   14.8935 C   0  0  2  0  0  0  0  0  0  0  0  0
   25.4958   24.0717   14.1410 C   0  0  0  0  0  0  0  0  0  0  0  0
   26.5809   24.0970   14.7074 O   0  0  0  0  0  0  0  0  0  0  0  0
   25.3430   23.8729   12.7783 N   0  0  0  0  0  0  0  0  0  0  0  0
   26.4852   23.6763   11.8924 C   0  0  1  0  0  0  0  0  0  0  0  0
   26.0718   23.2433   10.4979 C   0  0  0  0  0  0  0  0  0  0  0  0
   26.6972   23.7497    9.3468 C   0  0  0  0  0  0  0  0  0  0  0  0
   26.3033   23.3101    8.0890 C   0  0  0  0  0  0  0  0  0  0  0  0
   25.3450   22.3304    7.9540 C   0  0  0  0  0  0  0  0  0  0  0  0
   24.7555   21.8011    9.0802 C   0  0  0  0  0  0  0  0  0  0  0  0
   25.1090   22.2502   10.3355 C   0  0  0  0  0  0  0  0  0  0  0  0
   27.7866   24.7817    9.4202 C   0  0  0  0  0  0  0  0  0  0  0  0
   28.4335   24.8091   10.7918 C   0  0  0  0  0  0  0  0  0  0  0  0
   27.3597   24.9319   11.8561 C   0  0  0  0  0  0  0  0  0  0  0  0
   24.1540   25.4929   15.7507 C   0  0  0  0  0  0  0  0  0  0  0  0
   28.1481   27.1569   17.0082 H   0  0  0  0  0  0  0  0  0  0  0  0
   28.7771   25.6828   17.8022 H   0  0  0  0  0  0  0  0  0  0  0  0
   28.4935   27.1656   18.7533 H   0  0  0  0  0  0  0  0  0  0  0  0
   26.7319   25.1960   16.3367 H   0  0  0  0  0  0  0  0  0  0  0  0
   24.2391   25.6029   17.9089 H   0  0  0  0  0  0  0  0  0  0  0  0
   25.4120   23.0033   17.3755 H   0  0  0  0  0  0  0  0  0  0  0  0
   23.7853   23.3283   17.9527 H   0  0  0  0  0  0  0  0  0  0  0  0
   23.8584   20.5332   16.9686 H   0  0  0  0  0  0  0  0  0  0  0  0
   21.7169   22.4950   17.3506 H   0  0  0  0  0  0  0  0  0  0  0  0
   20.8759   22.8526   19.3670 H   0  0  0  0  0  0  0  0  0  0  0  0
   20.1603   20.2318   20.5579 H   0  0  0  0  0  0  0  0  0  0  0  0
   19.3642   21.6376   20.8089 H   0  0  0  0  0  0  0  0  0  0  0  0
   18.1054   20.4405   19.3138 H   0  0  0  0  0  0  0  0  0  0  0  0
   19.5319   20.1554   18.2779 H   0  0  0  0  0  0  0  0  0  0  0  0
   18.8348   21.8142   18.4259 H   0  0  0  0  0  0  0  0  0  0  0  0
   22.1805   21.2873   21.6584 H   0  0  0  0  0  0  0  0  0  0  0  0
   21.2179   22.7597   21.8134 H   0  0  0  0  0  0  0  0  0  0  0  0
   22.7804   22.8052   20.9840 H   0  0  0  0  0  0  0  0  0  0  0  0
   22.6896   19.5391   14.9286 H   0  0  0  0  0  0  0  0  0  0  0  0
   22.9668   18.2273   16.9763 H   0  0  0  0  0  0  0  0  0  0  0  0
   21.4327   18.8226   17.5972 H   0  0  0  0  0  0  0  0  0  0  0  0
   21.8168   17.1981   15.0512 H   0  0  0  0  0  0  0  0  0  0  0  0
   21.1231   16.6317   16.5666 H   0  0  0  0  0  0  0  0  0  0  0  0
   19.3639   17.2240   14.9141 H   0  0  0  0  0  0  0  0  0  0  0  0
   19.2651   18.2067   16.3773 H   0  0  0  0  0  0  0  0  0  0  0  0
   20.4229   19.0276   13.6922 H   0  0  0  0  0  0  0  0  0  0  0  0
   18.9497   19.6359   14.4511 H   0  0  0  0  0  0  0  0  0  0  0  0
   20.1746   20.7577   16.1698 H   0  0  0  0  0  0  0  0  0  0  0  0
   20.8790   21.2000   14.6358 H   0  0  0  0  0  0  0  0  0  0  0  0
   23.3389   24.2448   14.1809 H   0  0  0  0  0  0  0  0  0  0  0  0
   24.4098   23.7540   12.3957 H   0  0  0  0  0  0  0  0  0  0  0  0
   27.0799   22.8616   12.3229 H   0  0  0  0  0  0  0  0  0  0  0  0
   26.7609   23.7236    7.1955 H   0  0  0  0  0  0  0  0  0  0  0  0
   25.0642   21.9744    6.9681 H   0  0  0  0  0  0  0  0  0  0  0  0
   24.0154   21.0217    8.9771 H   0  0  0  0  0  0  0  0  0  0  0  0
   24.6317   21.7961   11.1983 H   0  0  0  0  0  0  0  0  0  0  0  0
   28.5577   24.5721    8.6713 H   0  0  0  0  0  0  0  0  0  0  0  0
   27.3599   25.7618    9.1826 H   0  0  0  0  0  0  0  0  0  0  0  0
   29.0196   23.8979   10.9572 H   0  0  0  0  0  0  0  0  0  0  0  0
   29.1348   25.6459   10.8521 H   0  0  0  0  0  0  0  0  0  0  0  0
   26.7390   25.8121   11.6604 H   0  0  0  0  0  0  0  0  0  0  0  0
   27.8352   25.1053   12.8257 H   0  0  0  0  0  0  0  0  0  0  0  0
   23.1131   25.7856   15.8896 H   0  0  0  0  0  0  0  0  0  0  0  0
   24.6870   26.3330   15.3078 H   0  0  0  0  0  0  0  0  0  0  0  0
  1 39  1  0  0  0  0
  1 40  1  0  0  0  0
  1 41  1  0  0  0  0
  1  2  1  0  0  0  0
  2  3  2  0  0  0  0
  2  4  1  0  0  0  0
  4 42  1  0  0  0  0
  5  4  1  0  0  0  0
  5 43  1  0  0  0  0
  5 38  1  0  0  0  0
  5  6  1  0  0  0  0
  6  7  1  0  0  0  0
  6 44  1  0  0  0  0
  6 45  1  0  0  0  0
 24  7  1  0  0  0  0
  7  8  1  0  0  0  0
  8  9  2  0  0  0  0
 10  8  1  0  0  0  0
 10 46  1  0  0  0  0
 10 11  1  0  0  0  0
 10 18  1  0  0  0  0
 11 47  1  0  0  0  0
 11 12  1  0  0  0  0
 12 13  2  0  0  0  0
 14 12  1  0  0  0  0
 14 48  1  0  0  0  0
 14 17  1  0  0  0  0
 14 15  1  0  0  0  0
 15 49  1  0  0  0  0
 15 50  1  0  0  0  0
 15 16  1  0  0  0  0
 16 51  1  0  0  0  0
 16 52  1  0  0  0  0
 16 53  1  0  0  0  0
 17 54  1  0  0  0  0
 17 55  1  0  0  0  0
 17 56  1  0  0  0  0
 18 57  1  0  0  0  0
 18 19  1  0  0  0  0
 18 23  1  0  0  0  0
 19 58  1  0  0  0  0
 19 59  1  0  0  0  0
 19 20  1  0  0  0  0
 20 60  1  0  0  0  0
 20 61  1  0  0  0  0
 20 21  1  0  0  0  0
 21 62  1  0  0  0  0
 21 63  1  0  0  0  0
 21 22  1  0  0  0  0
 22 64  1  0  0  0  0
 22 65  1  0  0  0  0
 22 23  1  0  0  0  0
 23 66  1  0  0  0  0
 23 67  1  0  0  0  0
 24 38  1  0  0  0  0
 24 68  1  0  0  0  0
 24 25  1  0  0  0  0
 25 26  2  0  0  0  0
 25 27  1  0  0  0  0
 27 69  1  0  0  0  0
 28 27  1  0  0  0  0
 28 70  1  0  0  0  0
 28 29  1  0  0  0  0
 28 37  1  0  0  0  0
 29 30  2  0  0  0  0
 29 34  1  0  0  0  0
 30 35  1  0  0  0  0
 30 31  1  0  0  0  0
 31 71  1  0  0  0  0
 31 32  2  0  0  0  0
 32 72  1  0  0  0  0
 32 33  1  0  0  0  0
 33 73  1  0  0  0  0
 33 34  2  0  0  0  0
 34 74  1  0  0  0  0
 35 75  1  0  0  0  0
 35 76  1  0  0  0  0
 35 36  1  0  0  0  0
 36 77  1  0  0  0  0
 36 78  1  0  0  0  0
 36 37  1  0  0  0  0
 37 79  1  0  0  0  0
 37 80  1  0  0  0  0
 38 81  1  0  0  0  0
 38 82  1  0  0  0  0
M  ZZC   1 c1
M  ZZC   2 c2
M  ZZC   3 o1
M  ZZC   4 n1
M  ZZC   5 c3
M  ZZC   6 c4
M  ZZC   7 n2
M  ZZC   8 c5
M  ZZC   9 o2
M  ZZC  10 c6
M  ZZC  11 n3
M  ZZC  12 c7
M  ZZC  13 o3
M  ZZC  14 c8
M  ZZC  15 n4
M  ZZC  16 c9
M  ZZC  17 c10
M  ZZC  18 c11
M  ZZC  19 c12
M  ZZC  20 c13
M  ZZC  21 c14
M  ZZC  22 c15
M  ZZC  23 c16
M  ZZC  24 c17
M  ZZC  25 c18
M  ZZC  26 o4
M  ZZC  27 n5
M  ZZC  28 c19
M  ZZC  29 c20
M  ZZC  30 c21
M  ZZC  31 c22
M  ZZC  32 c23
M  ZZC  33 c24
M  ZZC  34 c25
M  ZZC  35 c26
M  ZZC  36 c27
M  ZZC  37 c28
M  ZZC  38 c29
M  ZZC  39 h11
M  ZZC  40 h12
M  ZZC  41 h13
M  ZZC  42 h01
M  ZZC  43 h31
M  ZZC  44 h41
M  ZZC  45 h42
M  ZZC  46 h61
M  ZZC  47 h02
M  ZZC  48 h81
M  ZZC  49 h03
M  ZZC  50 h04
M  ZZC  51 h91
M  ZZC  52 h92
M  ZZC  53 h93
M  ZZC  54 h101
M  ZZC  55 h102
M  ZZC  56 h103
M  ZZC  57 h111
M  ZZC  58 h121
M  ZZC  59 h122
M  ZZC  60 h131
M  ZZC  61 h132
M  ZZC  62 h141
M  ZZC  63 h142
M  ZZC  64 h151
M  ZZC  65 h152
M  ZZC  66 h161
M  ZZC  67 h162
M  ZZC  68 h171
M  ZZC  69 h51
M  ZZC  70 h191
M  ZZC  71 h221
M  ZZC  72 h231
M  ZZC  73 h241
M  ZZC  74 h251
M  ZZC  75 h261
M  ZZC  76 h262
M  ZZC  77 h271
M  ZZC  78 h272
M  ZZC  79 h281
M  ZZC  80 h282
M  ZZC  81 h291
M  ZZC  82 h292
M  ZZM   1 1
M  ZZI   1 111
M  ZZM   2 3
M  ZZI   2 121
M  ZZM   3 7
M  ZZI   3 81
M  ZZM   4 10
M  ZZI   4 211
M  ZZM   5 1
M  ZZI   5 113
M  ZZM   6 1
M  ZZI   6 112
M  ZZM   7 10
M  ZZI   7 192
M  ZZM   8 3
M  ZZI   8 121
M  ZZM   9 7
M  ZZI   9 81
M  ZZM  10 1
M  ZZI  10 113
M  ZZM  11 10
M  ZZI  11 211
M  ZZM  12 3
M  ZZI  12 121
M  ZZM  13 7
M  ZZI  13 81
M  ZZM  14 1
M  ZZI  14 113
M  ZZM  15 34
M  ZZI  15 231
M  ZZM  16 1
M  ZZI  16 111
M  ZZM  17 1
M  ZZI  17 111
M  ZZM  18 1
M  ZZI  18 113
M  ZZM  19 1
M  ZZI  19 112
M  ZZM  20 1
M  ZZI  20 112
M  ZZM  21 1
M  ZZI  21 112
M  ZZM  22 1
M  ZZI  22 112
M  ZZM  23 1
M  ZZI  23 112
M  ZZM  24 1
M  ZZI  24 113
M  ZZM  25 3
M  ZZI  25 121
M  ZZM  26 7
M  ZZI  26 81
M  ZZM  27 10
M  ZZI  27 211
M  ZZM  28 1
M  ZZI  28 113
M  ZZM  29 37
M  ZZI  29 124
M  ZZM  30 37
M  ZZI  30 124
M  ZZM  31 37
M  ZZI  31 125
M  ZZM  32 37
M  ZZI  32 125
M  ZZM  33 37
M  ZZI  33 125
M  ZZM  34 37
M  ZZI  34 125
M  ZZM  35 1
M  ZZI  35 112
M  ZZM  36 1
M  ZZI  36 112
M  ZZM  37 1
M  ZZI  37 112
M  ZZM  38 1
M  ZZI  38 112
M  ZZM  39 5
M  ZZI  39 1
M  ZZM  40 5
M  ZZI  40 1
M  ZZM  41 5
M  ZZI  41 1
M  ZZM  42 28
M  ZZI  42 11
M  ZZM  43 5
M  ZZI  43 1
M  ZZM  44 5
M  ZZI  44 1
M  ZZM  45 5
M  ZZI  45 1
M  ZZM  46 5
M  ZZI  46 1
M  ZZM  47 28
M  ZZI  47 11
M  ZZM  48 5
M  ZZI  48 1
M  ZZM  49 36
M  ZZI  49 17
M  ZZM  50 36
M  ZZI  50 17
M  ZZM  51 5
M  ZZI  51 1
M  ZZM  52 5
M  ZZI  52 1
M  ZZM  53 5
M  ZZI  53 1
M  ZZM  54 5
M  ZZI  54 1
M  ZZM  55 5
M  ZZI  55 1
M  ZZM  56 5
M  ZZI  56 1
M  ZZM  57 5
M  ZZI  57 1
M  ZZM  58 5
M  ZZI  58 1
M  ZZM  59 5
M  ZZI  59 1
M  ZZM  60 5
M  ZZI  60 1
M  ZZM  61 5
M  ZZI  61 1
M  ZZM  62 5
M  ZZI  62 1
M  ZZM  63 5
M  ZZI  63 1
M  ZZM  64 5
M  ZZI  64 1
M  ZZM  65 5
M  ZZI  65 1
M  ZZM  66 5
M  ZZI  66 1
M  ZZM  67 5
M  ZZI  67 1
M  ZZM  68 5
M  ZZI  68 1
M  ZZM  69 28
M  ZZI  69 11
M  ZZM  70 5
M  ZZI  70 1
M  ZZM  71 5
M  ZZI  71 1
M  ZZM  72 5
M  ZZI  72 1
M  ZZM  73 5
M  ZZI  73 1
M  ZZM  74 5
M  ZZI  74 1
M  ZZM  75 5
M  ZZI  75 1
M  ZZM  76 5
M  ZZI  76 1
M  ZZM  77 5
M  ZZI  77 1
M  ZZM  78 5
M  ZZI  78 1
M  ZZM  79 5
M  ZZI  79 1
M  ZZM  80 5
M  ZZI  80 1
M  ZZM  81 5
M  ZZI  81 1
M  ZZM  82 5
M  ZZI  82 1
M  CHG  1  15   1
M  END
> <IX>
1

> <NAME>
IAPBIR2_6XJK_10.pdb

> <Score>
-11.282868

> <Natom>
82

> <Nflex>
9

> <Hbond>
-3.622611

> <Hphob>
-6.722883

> <VwInt>
-46.569858

> <Dsolv>
16.795887

> <SolEl>
32.47656

> <Eintl>
15.875138

> <RecConf>
ND

> <projPath>
IAPBIR2_maps/

> <NAME_>
IAPBIR2_6XJK_10.pdb

$$$$
