IAPBIR2_6NY4_7.pdb
  MOLSOFT 04032206403D

 82 85  0  0  1  0  0  0  0  0999 V2000
   28.1327   26.5415   17.9240 C   0  0  0  0  0  0  0  0  0  0  0  0
   26.7238   26.1018   18.2066 C   0  0  0  0  0  0  0  0  0  0  0  0
   26.1773   26.3282   19.2759 O   0  0  0  0  0  0  0  0  0  0  0  0
   26.1537   25.4371   17.1405 N   0  0  0  0  0  0  0  0  0  0  0  0
   24.7442   25.0807   17.0930 C   0  0  2  0  0  0  0  0  0  0  0  0
   24.4944   23.5727   17.1712 C   0  0  0  0  0  0  0  0  0  0  0  0
   23.9913   23.1828   15.8611 N   0  0  0  0  0  0  0  0  0  0  0  0
   23.4475   21.9693   15.4500 C   0  0  0  0  0  0  0  0  0  0  0  0
   23.4357   21.6781   14.2610 O   0  0  0  0  0  0  0  0  0  0  0  0
   22.9605   20.9700   16.5154 C   0  0  1  0  0  0  0  0  0  0  0  0
   22.1852   21.6250   17.5803 N   0  0  0  0  0  0  0  0  0  0  0  0
   22.1505   21.1552   18.8856 C   0  0  0  0  0  0  0  0  0  0  0  0
   22.7969   20.1947   19.2776 O   0  0  0  0  0  0  0  0  0  0  0  0
   21.1924   21.9102   19.8160 C   0  0  1  0  0  0  0  0  0  0  0  0
   19.9243   21.1280   20.1053 N   0  3  0  0  0  0  0  0  0  0  0  0
   19.0379   20.8701   18.9301 C   0  0  0  0  0  0  0  0  0  0  0  0
   21.8780   22.2024   21.1443 C   0  0  0  0  0  0  0  0  0  0  0  0
   22.1385   19.8575   15.8152 C   0  0  0  0  0  0  0  0  0  0  0  0
   21.9856   18.6013   16.6793 C   0  0  0  0  0  0  0  0  0  0  0  0
   21.2412   17.5079   15.9308 C   0  0  0  0  0  0  0  0  0  0  0  0
   19.8747   17.9985   15.4899 C   0  0  0  0  0  0  0  0  0  0  0  0
   19.9651   19.2595   14.6509 C   0  0  0  0  0  0  0  0  0  0  0  0
   20.7653   20.3590   15.3299 C   0  0  0  0  0  0  0  0  0  0  0  0
   24.1716   24.2463   14.8951 C   0  0  2  0  0  0  0  0  0  0  0  0
   25.4946   24.0744   14.1429 C   0  0  0  0  0  0  0  0  0  0  0  0
   26.5797   24.1011   14.7097 O   0  0  0  0  0  0  0  0  0  0  0  0
   25.3423   23.8719   12.7806 N   0  0  0  0  0  0  0  0  0  0  0  0
   26.4846   23.6757   11.8945 C   0  0  1  0  0  0  0  0  0  0  0  0
   26.0714   23.2434   10.4998 C   0  0  0  0  0  0  0  0  0  0  0  0
   26.6979   23.7495    9.3491 C   0  0  0  0  0  0  0  0  0  0  0  0
   26.3046   23.3099    8.0910 C   0  0  0  0  0  0  0  0  0  0  0  0
   25.3459   22.3306    7.9553 C   0  0  0  0  0  0  0  0  0  0  0  0
   24.7555   21.8015    9.0811 C   0  0  0  0  0  0  0  0  0  0  0  0
   25.1082   22.2508   10.3365 C   0  0  0  0  0  0  0  0  0  0  0  0
   27.7875   24.7811    9.4231 C   0  0  0  0  0  0  0  0  0  0  0  0
   28.4335   24.8089   10.7951 C   0  0  0  0  0  0  0  0  0  0  0  0
   27.3589   24.9315   11.8587 C   0  0  0  0  0  0  0  0  0  0  0  0
   24.1533   25.4943   15.7540 C   0  0  0  0  0  0  0  0  0  0  0  0
   28.1587   27.1395   17.0070 H   0  0  0  0  0  0  0  0  0  0  0  0
   28.7784   25.6658   17.8084 H   0  0  0  0  0  0  0  0  0  0  0  0
   28.5007   27.1538   18.7528 H   0  0  0  0  0  0  0  0  0  0  0  0
   26.7315   25.1879   16.3386 H   0  0  0  0  0  0  0  0  0  0  0  0
   24.2405   25.6029   17.9123 H   0  0  0  0  0  0  0  0  0  0  0  0
   25.4036   22.9995   17.3803 H   0  0  0  0  0  0  0  0  0  0  0  0
   23.7757   23.3314   17.9513 H   0  0  0  0  0  0  0  0  0  0  0  0
   23.8591   20.5351   16.9669 H   0  0  0  0  0  0  0  0  0  0  0  0
   21.7064   22.4875   17.3451 H   0  0  0  0  0  0  0  0  0  0  0  0
   20.8789   22.8528   19.3666 H   0  0  0  0  0  0  0  0  0  0  0  0
   20.1597   20.2312   20.5527 H   0  0  0  0  0  0  0  0  0  0  0  0
   19.3636   21.6367   20.8038 H   0  0  0  0  0  0  0  0  0  0  0  0
   18.1060   20.4432   19.3061 H   0  0  0  0  0  0  0  0  0  0  0  0
   19.5345   20.1546   18.2735 H   0  0  0  0  0  0  0  0  0  0  0  0
   18.8405   21.8147   18.4180 H   0  0  0  0  0  0  0  0  0  0  0  0
   22.1761   21.2842   21.6597 H   0  0  0  0  0  0  0  0  0  0  0  0
   21.2161   22.7586   21.8126 H   0  0  0  0  0  0  0  0  0  0  0  0
   22.7807   22.8014   20.9872 H   0  0  0  0  0  0  0  0  0  0  0  0
   22.6952   19.5347   14.9278 H   0  0  0  0  0  0  0  0  0  0  0  0
   22.9701   18.2272   16.9787 H   0  0  0  0  0  0  0  0  0  0  0  0
   21.4358   18.8238   17.5976 H   0  0  0  0  0  0  0  0  0  0  0  0
   21.8217   17.1908   15.0574 H   0  0  0  0  0  0  0  0  0  0  0  0
   21.1268   16.6299   16.5742 H   0  0  0  0  0  0  0  0  0  0  0  0
   19.3689   17.2148   14.9179 H   0  0  0  0  0  0  0  0  0  0  0  0
   19.2681   18.2029   16.3772 H   0  0  0  0  0  0  0  0  0  0  0  0
   20.4291   19.0151   13.6900 H   0  0  0  0  0  0  0  0  0  0  0  0
   18.9548   19.6244   14.4448 H   0  0  0  0  0  0  0  0  0  0  0  0
   20.1758   20.7514   16.1628 H   0  0  0  0  0  0  0  0  0  0  0  0
   20.8805   21.1917   14.6289 H   0  0  0  0  0  0  0  0  0  0  0  0
   23.3377   24.2497   14.1822 H   0  0  0  0  0  0  0  0  0  0  0  0
   24.4091   23.7518   12.3986 H   0  0  0  0  0  0  0  0  0  0  0  0
   27.0793   22.8610   12.3251 H   0  0  0  0  0  0  0  0  0  0  0  0
   26.7631   23.7231    7.1978 H   0  0  0  0  0  0  0  0  0  0  0  0
   25.0655   21.9748    6.9692 H   0  0  0  0  0  0  0  0  0  0  0  0
   24.0153   21.0223    8.9776 H   0  0  0  0  0  0  0  0  0  0  0  0
   24.6303   21.7967   11.1991 H   0  0  0  0  0  0  0  0  0  0  0  0
   28.5590   24.5713    8.6747 H   0  0  0  0  0  0  0  0  0  0  0  0
   27.3611   25.7613    9.1850 H   0  0  0  0  0  0  0  0  0  0  0  0
   29.0196   23.8978   10.9610 H   0  0  0  0  0  0  0  0  0  0  0  0
   29.1346   25.6458   10.8559 H   0  0  0  0  0  0  0  0  0  0  0  0
   26.7383   25.8116   11.6625 H   0  0  0  0  0  0  0  0  0  0  0  0
   27.8338   25.1052   12.8284 H   0  0  0  0  0  0  0  0  0  0  0  0
   23.1125   25.7874   15.8932 H   0  0  0  0  0  0  0  0  0  0  0  0
   24.6868   26.3345   15.3118 H   0  0  0  0  0  0  0  0  0  0  0  0
  1 39  1  0  0  0  0
  1 40  1  0  0  0  0
  1 41  1  0  0  0  0
  1  2  1  0  0  0  0
  2  3  2  0  0  0  0
  2  4  1  0  0  0  0
  4 42  1  0  0  0  0
  5  4  1  0  0  0  0
  5 43  1  0  0  0  0
  5 38  1  0  0  0  0
  5  6  1  0  0  0  0
  6  7  1  0  0  0  0
  6 44  1  0  0  0  0
  6 45  1  0  0  0  0
 24  7  1  0  0  0  0
  7  8  1  0  0  0  0
  8  9  2  0  0  0  0
 10  8  1  0  0  0  0
 10 46  1  0  0  0  0
 10 11  1  0  0  0  0
 10 18  1  0  0  0  0
 11 47  1  0  0  0  0
 11 12  1  0  0  0  0
 12 13  2  0  0  0  0
 14 12  1  0  0  0  0
 14 48  1  0  0  0  0
 14 17  1  0  0  0  0
 14 15  1  0  0  0  0
 15 49  1  0  0  0  0
 15 50  1  0  0  0  0
 15 16  1  0  0  0  0
 16 51  1  0  0  0  0
 16 52  1  0  0  0  0
 16 53  1  0  0  0  0
 17 54  1  0  0  0  0
 17 55  1  0  0  0  0
 17 56  1  0  0  0  0
 18 57  1  0  0  0  0
 18 19  1  0  0  0  0
 18 23  1  0  0  0  0
 19 58  1  0  0  0  0
 19 59  1  0  0  0  0
 19 20  1  0  0  0  0
 20 60  1  0  0  0  0
 20 61  1  0  0  0  0
 20 21  1  0  0  0  0
 21 62  1  0  0  0  0
 21 63  1  0  0  0  0
 21 22  1  0  0  0  0
 22 64  1  0  0  0  0
 22 65  1  0  0  0  0
 22 23  1  0  0  0  0
 23 66  1  0  0  0  0
 23 67  1  0  0  0  0
 24 38  1  0  0  0  0
 24 68  1  0  0  0  0
 24 25  1  0  0  0  0
 25 26  2  0  0  0  0
 25 27  1  0  0  0  0
 27 69  1  0  0  0  0
 28 27  1  0  0  0  0
 28 70  1  0  0  0  0
 28 29  1  0  0  0  0
 28 37  1  0  0  0  0
 29 30  2  0  0  0  0
 29 34  1  0  0  0  0
 30 35  1  0  0  0  0
 30 31  1  0  0  0  0
 31 71  1  0  0  0  0
 31 32  2  0  0  0  0
 32 72  1  0  0  0  0
 32 33  1  0  0  0  0
 33 73  1  0  0  0  0
 33 34  2  0  0  0  0
 34 74  1  0  0  0  0
 35 75  1  0  0  0  0
 35 76  1  0  0  0  0
 35 36  1  0  0  0  0
 36 77  1  0  0  0  0
 36 78  1  0  0  0  0
 36 37  1  0  0  0  0
 37 79  1  0  0  0  0
 37 80  1  0  0  0  0
 38 81  1  0  0  0  0
 38 82  1  0  0  0  0
M  ZZC   1 c1
M  ZZC   2 c2
M  ZZC   3 o1
M  ZZC   4 n1
M  ZZC   5 c3
M  ZZC   6 c4
M  ZZC   7 n2
M  ZZC   8 c5
M  ZZC   9 o2
M  ZZC  10 c6
M  ZZC  11 n3
M  ZZC  12 c7
M  ZZC  13 o3
M  ZZC  14 c8
M  ZZC  15 n4
M  ZZC  16 c9
M  ZZC  17 c10
M  ZZC  18 c11
M  ZZC  19 c12
M  ZZC  20 c13
M  ZZC  21 c14
M  ZZC  22 c15
M  ZZC  23 c16
M  ZZC  24 c17
M  ZZC  25 c18
M  ZZC  26 o4
M  ZZC  27 n5
M  ZZC  28 c19
M  ZZC  29 c20
M  ZZC  30 c21
M  ZZC  31 c22
M  ZZC  32 c23
M  ZZC  33 c24
M  ZZC  34 c25
M  ZZC  35 c26
M  ZZC  36 c27
M  ZZC  37 c28
M  ZZC  38 c29
M  ZZC  39 h11
M  ZZC  40 h12
M  ZZC  41 h13
M  ZZC  42 h01
M  ZZC  43 h31
M  ZZC  44 h41
M  ZZC  45 h42
M  ZZC  46 h61
M  ZZC  47 h02
M  ZZC  48 h81
M  ZZC  49 h03
M  ZZC  50 h04
M  ZZC  51 h91
M  ZZC  52 h92
M  ZZC  53 h93
M  ZZC  54 h101
M  ZZC  55 h102
M  ZZC  56 h103
M  ZZC  57 h111
M  ZZC  58 h121
M  ZZC  59 h122
M  ZZC  60 h131
M  ZZC  61 h132
M  ZZC  62 h141
M  ZZC  63 h142
M  ZZC  64 h151
M  ZZC  65 h152
M  ZZC  66 h161
M  ZZC  67 h162
M  ZZC  68 h171
M  ZZC  69 h51
M  ZZC  70 h191
M  ZZC  71 h221
M  ZZC  72 h231
M  ZZC  73 h241
M  ZZC  74 h251
M  ZZC  75 h261
M  ZZC  76 h262
M  ZZC  77 h271
M  ZZC  78 h272
M  ZZC  79 h281
M  ZZC  80 h282
M  ZZC  81 h291
M  ZZC  82 h292
M  ZZM   1 1
M  ZZI   1 111
M  ZZM   2 3
M  ZZI   2 121
M  ZZM   3 7
M  ZZI   3 81
M  ZZM   4 10
M  ZZI   4 211
M  ZZM   5 1
M  ZZI   5 113
M  ZZM   6 1
M  ZZI   6 112
M  ZZM   7 10
M  ZZI   7 192
M  ZZM   8 3
M  ZZI   8 121
M  ZZM   9 7
M  ZZI   9 81
M  ZZM  10 1
M  ZZI  10 113
M  ZZM  11 10
M  ZZI  11 211
M  ZZM  12 3
M  ZZI  12 121
M  ZZM  13 7
M  ZZI  13 81
M  ZZM  14 1
M  ZZI  14 113
M  ZZM  15 34
M  ZZI  15 231
M  ZZM  16 1
M  ZZI  16 111
M  ZZM  17 1
M  ZZI  17 111
M  ZZM  18 1
M  ZZI  18 113
M  ZZM  19 1
M  ZZI  19 112
M  ZZM  20 1
M  ZZI  20 112
M  ZZM  21 1
M  ZZI  21 112
M  ZZM  22 1
M  ZZI  22 112
M  ZZM  23 1
M  ZZI  23 112
M  ZZM  24 1
M  ZZI  24 113
M  ZZM  25 3
M  ZZI  25 121
M  ZZM  26 7
M  ZZI  26 81
M  ZZM  27 10
M  ZZI  27 211
M  ZZM  28 1
M  ZZI  28 113
M  ZZM  29 37
M  ZZI  29 124
M  ZZM  30 37
M  ZZI  30 124
M  ZZM  31 37
M  ZZI  31 125
M  ZZM  32 37
M  ZZI  32 125
M  ZZM  33 37
M  ZZI  33 125
M  ZZM  34 37
M  ZZI  34 125
M  ZZM  35 1
M  ZZI  35 112
M  ZZM  36 1
M  ZZI  36 112
M  ZZM  37 1
M  ZZI  37 112
M  ZZM  38 1
M  ZZI  38 112
M  ZZM  39 5
M  ZZI  39 1
M  ZZM  40 5
M  ZZI  40 1
M  ZZM  41 5
M  ZZI  41 1
M  ZZM  42 28
M  ZZI  42 11
M  ZZM  43 5
M  ZZI  43 1
M  ZZM  44 5
M  ZZI  44 1
M  ZZM  45 5
M  ZZI  45 1
M  ZZM  46 5
M  ZZI  46 1
M  ZZM  47 28
M  ZZI  47 11
M  ZZM  48 5
M  ZZI  48 1
M  ZZM  49 36
M  ZZI  49 17
M  ZZM  50 36
M  ZZI  50 17
M  ZZM  51 5
M  ZZI  51 1
M  ZZM  52 5
M  ZZI  52 1
M  ZZM  53 5
M  ZZI  53 1
M  ZZM  54 5
M  ZZI  54 1
M  ZZM  55 5
M  ZZI  55 1
M  ZZM  56 5
M  ZZI  56 1
M  ZZM  57 5
M  ZZI  57 1
M  ZZM  58 5
M  ZZI  58 1
M  ZZM  59 5
M  ZZI  59 1
M  ZZM  60 5
M  ZZI  60 1
M  ZZM  61 5
M  ZZI  61 1
M  ZZM  62 5
M  ZZI  62 1
M  ZZM  63 5
M  ZZI  63 1
M  ZZM  64 5
M  ZZI  64 1
M  ZZM  65 5
M  ZZI  65 1
M  ZZM  66 5
M  ZZI  66 1
M  ZZM  67 5
M  ZZI  67 1
M  ZZM  68 5
M  ZZI  68 1
M  ZZM  69 28
M  ZZI  69 11
M  ZZM  70 5
M  ZZI  70 1
M  ZZM  71 5
M  ZZI  71 1
M  ZZM  72 5
M  ZZI  72 1
M  ZZM  73 5
M  ZZI  73 1
M  ZZM  74 5
M  ZZI  74 1
M  ZZM  75 5
M  ZZI  75 1
M  ZZM  76 5
M  ZZI  76 1
M  ZZM  77 5
M  ZZI  77 1
M  ZZM  78 5
M  ZZI  78 1
M  ZZM  79 5
M  ZZI  79 1
M  ZZM  80 5
M  ZZI  80 1
M  ZZM  81 5
M  ZZI  81 1
M  ZZM  82 5
M  ZZI  82 1
M  CHG  1  15   1
M  END
> <IX>
1

> <NAME>
IAPBIR2_6NY4_7.pdb

> <Score>
-9.676141

> <Natom>
82

> <Nflex>
9

> <Hbond>
-3.622054

> <Hphob>
-5.760429

> <VwInt>
-46.427544

> <Dsolv>
16.946481

> <SolEl>
31.978633

> <Eintl>
17.598214

> <RecConf>
ND

> <projPath>
IAPBIR2_maps/

> <NAME_>
IAPBIR2_6NY4_7.pdb

$$$$
