IAPBIR2_6XJK_1.pdb
  MOLSOFT 04032206403D

 82 85  0  0  1  0  0  0  0  0999 V2000
    8.0446   45.9283   16.3502 C   0  0  0  0  0  0  0  0  0  0  0  0
    9.5271   45.8973   16.5971 C   0  0  0  0  0  0  0  0  0  0  0  0
   10.2029   44.9094   16.3452 O   0  0  0  0  0  0  0  0  0  0  0  0
   10.0187   47.0749   17.1297 N   0  0  0  0  0  0  0  0  0  0  0  0
   11.4424   47.2171   17.3706 C   0  0  2  0  0  0  0  0  0  0  0  0
   11.8861   48.2382   18.4014 C   0  0  0  0  0  0  0  0  0  0  0  0
   13.3084   48.3771   18.1100 N   0  0  0  0  0  0  0  0  0  0  0  0
   14.3570   48.4330   19.0296 C   0  0  0  0  0  0  0  0  0  0  0  0
   15.5090   48.2110   18.6843 O   0  0  0  0  0  0  0  0  0  0  0  0
   13.9818   48.6886   20.4949 C   0  0  1  0  0  0  0  0  0  0  0  0
   13.7316   47.3741   21.0977 N   0  0  0  0  0  0  0  0  0  0  0  0
   12.6183   47.1353   21.8878 C   0  0  0  0  0  0  0  0  0  0  0  0
   11.8526   48.0115   22.2629 O   0  0  0  0  0  0  0  0  0  0  0  0
   12.3698   45.6670   22.2388 C   0  0  1  0  0  0  0  0  0  0  0  0
   11.6009   45.5464   23.5408 N   0  3  0  0  0  0  0  0  0  0  0  0
   11.4268   44.1640   24.0528 C   0  0  0  0  0  0  0  0  0  0  0  0
   11.5719   44.9972   21.1204 C   0  0  0  0  0  0  0  0  0  0  0  0
   15.0060   49.5273   21.2958 C   0  0  0  0  0  0  0  0  0  0  0  0
   16.3742   48.8684   21.4988 C   0  0  0  0  0  0  0  0  0  0  0  0
   17.2882   49.7378   22.3559 C   0  0  0  0  0  0  0  0  0  0  0  0
   17.4706   51.1151   21.7502 C   0  0  0  0  0  0  0  0  0  0  0  0
   16.1294   51.7921   21.5056 C   0  0  0  0  0  0  0  0  0  0  0  0
   15.1926   50.9196   20.6772 C   0  0  0  0  0  0  0  0  0  0  0  0
   13.5780   48.0172   16.7205 C   0  0  2  0  0  0  0  0  0  0  0  0
   14.2634   49.1244   15.9292 C   0  0  0  0  0  0  0  0  0  0  0  0
   13.6776   50.1362   15.5727 O   0  0  0  0  0  0  0  0  0  0  0  0
   15.6034   48.8578   15.7022 N   0  0  0  0  0  0  0  0  0  0  0  0
   16.5096   49.6990   14.9390 C   0  0  1  0  0  0  0  0  0  0  0  0
   16.0663   49.8657   13.5016 C   0  0  0  0  0  0  0  0  0  0  0  0
   15.9822   51.1269   12.8999 C   0  0  0  0  0  0  0  0  0  0  0  0
   15.5822   51.2301   11.5725 C   0  0  0  0  0  0  0  0  0  0  0  0
   15.2124   50.1101   10.8565 C   0  0  0  0  0  0  0  0  0  0  0  0
   15.2642   48.8698   11.4543 C   0  0  0  0  0  0  0  0  0  0  0  0
   15.7188   48.7416   12.7535 C   0  0  0  0  0  0  0  0  0  0  0  0
   16.3378   52.3786   13.6536 C   0  0  0  0  0  0  0  0  0  0  0  0
   16.0806   52.2212   15.1422 C   0  0  0  0  0  0  0  0  0  0  0  0
   16.8210   51.0078   15.6724 C   0  0  0  0  0  0  0  0  0  0  0  0
   12.2035   47.6883   16.1495 C   0  0  0  0  0  0  0  0  0  0  0  0
    7.7810   46.8115   15.7607 H   0  0  0  0  0  0  0  0  0  0  0  0
    7.5136   45.9516   17.3063 H   0  0  0  0  0  0  0  0  0  0  0  0
    7.7428   45.0360   15.7941 H   0  0  0  0  0  0  0  0  0  0  0  0
    9.3999   47.8679   17.2648 H   0  0  0  0  0  0  0  0  0  0  0  0
   11.8109   46.2357   17.6843 H   0  0  0  0  0  0  0  0  0  0  0  0
   11.4059   49.2117   18.2514 H   0  0  0  0  0  0  0  0  0  0  0  0
   11.6804   47.8978   19.4163 H   0  0  0  0  0  0  0  0  0  0  0  0
   13.0437   49.2523   20.5063 H   0  0  0  0  0  0  0  0  0  0  0  0
   14.4068   46.6337   20.9204 H   0  0  0  0  0  0  0  0  0  0  0  0
   13.3278   45.1601   22.3797 H   0  0  0  0  0  0  0  0  0  0  0  0
   12.0745   46.0891   24.2763 H   0  0  0  0  0  0  0  0  0  0  0  0
   10.6813   45.9993   23.4427 H   0  0  0  0  0  0  0  0  0  0  0  0
   10.7515   43.6253   23.3831 H   0  0  0  0  0  0  0  0  0  0  0  0
   10.9891   44.2393   25.0516 H   0  0  0  0  0  0  0  0  0  0  0  0
   12.4131   43.6967   24.0976 H   0  0  0  0  0  0  0  0  0  0  0  0
   10.5295   45.3296   21.1146 H   0  0  0  0  0  0  0  0  0  0  0  0
   11.5773   43.9082   21.2216 H   0  0  0  0  0  0  0  0  0  0  0  0
   11.9827   45.2357   20.1402 H   0  0  0  0  0  0  0  0  0  0  0  0
   14.5766   49.6671   22.2953 H   0  0  0  0  0  0  0  0  0  0  0  0
   16.2652   47.8906   21.9645 H   0  0  0  0  0  0  0  0  0  0  0  0
   16.8615   48.6969   20.5381 H   0  0  0  0  0  0  0  0  0  0  0  0
   16.8759   49.8409   23.3636 H   0  0  0  0  0  0  0  0  0  0  0  0
   18.2648   49.2638   22.4642 H   0  0  0  0  0  0  0  0  0  0  0  0
   18.0886   51.7326   22.4090 H   0  0  0  0  0  0  0  0  0  0  0  0
   18.0159   51.0176   20.8075 H   0  0  0  0  0  0  0  0  0  0  0  0
   15.6577   52.0201   22.4674 H   0  0  0  0  0  0  0  0  0  0  0  0
   16.2876   52.7494   20.9992 H   0  0  0  0  0  0  0  0  0  0  0  0
   15.5983   50.8330   19.6631 H   0  0  0  0  0  0  0  0  0  0  0  0
   14.2251   51.4233   20.5832 H   0  0  0  0  0  0  0  0  0  0  0  0
   14.2195   47.1324   16.7239 H   0  0  0  0  0  0  0  0  0  0  0  0
   16.0261   48.0678   16.1752 H   0  0  0  0  0  0  0  0  0  0  0  0
   17.4457   49.1281   14.9174 H   0  0  0  0  0  0  0  0  0  0  0  0
   15.5333   52.2014   11.0901 H   0  0  0  0  0  0  0  0  0  0  0  0
   14.8765   50.2046    9.8290 H   0  0  0  0  0  0  0  0  0  0  0  0
   14.9525   47.9962   10.8931 H   0  0  0  0  0  0  0  0  0  0  0  0
   15.7840   47.7493   13.1924 H   0  0  0  0  0  0  0  0  0  0  0  0
   17.3934   52.6127   13.4740 H   0  0  0  0  0  0  0  0  0  0  0  0
   15.7489   53.2245   13.2835 H   0  0  0  0  0  0  0  0  0  0  0  0
   16.4256   53.1176   15.6673 H   0  0  0  0  0  0  0  0  0  0  0  0
   15.0092   52.1393   15.3397 H   0  0  0  0  0  0  0  0  0  0  0  0
   16.6668   50.9044   16.7518 H   0  0  0  0  0  0  0  0  0  0  0  0
   17.8798   51.2218   15.5305 H   0  0  0  0  0  0  0  0  0  0  0  0
   12.2428   46.9345   15.3677 H   0  0  0  0  0  0  0  0  0  0  0  0
   11.7158   48.5645   15.7068 H   0  0  0  0  0  0  0  0  0  0  0  0
  1 39  1  0  0  0  0
  1 40  1  0  0  0  0
  1 41  1  0  0  0  0
  1  2  1  0  0  0  0
  2  3  2  0  0  0  0
  2  4  1  0  0  0  0
  4 42  1  0  0  0  0
  5  4  1  0  0  0  0
  5 43  1  0  0  0  0
  5 38  1  0  0  0  0
  5  6  1  0  0  0  0
  6  7  1  0  0  0  0
  6 44  1  0  0  0  0
  6 45  1  0  0  0  0
 24  7  1  0  0  0  0
  7  8  1  0  0  0  0
  8  9  2  0  0  0  0
 10  8  1  0  0  0  0
 10 46  1  0  0  0  0
 10 11  1  0  0  0  0
 10 18  1  0  0  0  0
 11 47  1  0  0  0  0
 11 12  1  0  0  0  0
 12 13  2  0  0  0  0
 14 12  1  0  0  0  0
 14 48  1  0  0  0  0
 14 17  1  0  0  0  0
 14 15  1  0  0  0  0
 15 49  1  0  0  0  0
 15 50  1  0  0  0  0
 15 16  1  0  0  0  0
 16 51  1  0  0  0  0
 16 52  1  0  0  0  0
 16 53  1  0  0  0  0
 17 54  1  0  0  0  0
 17 55  1  0  0  0  0
 17 56  1  0  0  0  0
 18 57  1  0  0  0  0
 18 19  1  0  0  0  0
 18 23  1  0  0  0  0
 19 58  1  0  0  0  0
 19 59  1  0  0  0  0
 19 20  1  0  0  0  0
 20 60  1  0  0  0  0
 20 61  1  0  0  0  0
 20 21  1  0  0  0  0
 21 62  1  0  0  0  0
 21 63  1  0  0  0  0
 21 22  1  0  0  0  0
 22 64  1  0  0  0  0
 22 65  1  0  0  0  0
 22 23  1  0  0  0  0
 23 66  1  0  0  0  0
 23 67  1  0  0  0  0
 24 38  1  0  0  0  0
 24 68  1  0  0  0  0
 24 25  1  0  0  0  0
 25 26  2  0  0  0  0
 25 27  1  0  0  0  0
 27 69  1  0  0  0  0
 28 27  1  0  0  0  0
 28 70  1  0  0  0  0
 28 29  1  0  0  0  0
 28 37  1  0  0  0  0
 29 30  2  0  0  0  0
 29 34  1  0  0  0  0
 30 35  1  0  0  0  0
 30 31  1  0  0  0  0
 31 71  1  0  0  0  0
 31 32  2  0  0  0  0
 32 72  1  0  0  0  0
 32 33  1  0  0  0  0
 33 73  1  0  0  0  0
 33 34  2  0  0  0  0
 34 74  1  0  0  0  0
 35 75  1  0  0  0  0
 35 76  1  0  0  0  0
 35 36  1  0  0  0  0
 36 77  1  0  0  0  0
 36 78  1  0  0  0  0
 36 37  1  0  0  0  0
 37 79  1  0  0  0  0
 37 80  1  0  0  0  0
 38 81  1  0  0  0  0
 38 82  1  0  0  0  0
M  ZZC   1 c1
M  ZZC   2 c2
M  ZZC   3 o1
M  ZZC   4 n1
M  ZZC   5 c3
M  ZZC   6 c4
M  ZZC   7 n2
M  ZZC   8 c5
M  ZZC   9 o2
M  ZZC  10 c6
M  ZZC  11 n3
M  ZZC  12 c7
M  ZZC  13 o3
M  ZZC  14 c8
M  ZZC  15 n4
M  ZZC  16 c9
M  ZZC  17 c10
M  ZZC  18 c11
M  ZZC  19 c12
M  ZZC  20 c13
M  ZZC  21 c14
M  ZZC  22 c15
M  ZZC  23 c16
M  ZZC  24 c17
M  ZZC  25 c18
M  ZZC  26 o4
M  ZZC  27 n5
M  ZZC  28 c19
M  ZZC  29 c20
M  ZZC  30 c21
M  ZZC  31 c22
M  ZZC  32 c23
M  ZZC  33 c24
M  ZZC  34 c25
M  ZZC  35 c26
M  ZZC  36 c27
M  ZZC  37 c28
M  ZZC  38 c29
M  ZZC  39 h11
M  ZZC  40 h12
M  ZZC  41 h13
M  ZZC  42 h01
M  ZZC  43 h31
M  ZZC  44 h41
M  ZZC  45 h42
M  ZZC  46 h61
M  ZZC  47 h02
M  ZZC  48 h81
M  ZZC  49 h03
M  ZZC  50 h04
M  ZZC  51 h91
M  ZZC  52 h92
M  ZZC  53 h93
M  ZZC  54 h101
M  ZZC  55 h102
M  ZZC  56 h103
M  ZZC  57 h111
M  ZZC  58 h121
M  ZZC  59 h122
M  ZZC  60 h131
M  ZZC  61 h132
M  ZZC  62 h141
M  ZZC  63 h142
M  ZZC  64 h151
M  ZZC  65 h152
M  ZZC  66 h161
M  ZZC  67 h162
M  ZZC  68 h171
M  ZZC  69 h51
M  ZZC  70 h191
M  ZZC  71 h221
M  ZZC  72 h231
M  ZZC  73 h241
M  ZZC  74 h251
M  ZZC  75 h261
M  ZZC  76 h262
M  ZZC  77 h271
M  ZZC  78 h272
M  ZZC  79 h281
M  ZZC  80 h282
M  ZZC  81 h291
M  ZZC  82 h292
M  ZZM   1 1
M  ZZI   1 111
M  ZZM   2 3
M  ZZI   2 121
M  ZZM   3 7
M  ZZI   3 81
M  ZZM   4 10
M  ZZI   4 211
M  ZZM   5 1
M  ZZI   5 113
M  ZZM   6 1
M  ZZI   6 112
M  ZZM   7 10
M  ZZI   7 192
M  ZZM   8 3
M  ZZI   8 121
M  ZZM   9 7
M  ZZI   9 81
M  ZZM  10 1
M  ZZI  10 113
M  ZZM  11 10
M  ZZI  11 211
M  ZZM  12 3
M  ZZI  12 121
M  ZZM  13 7
M  ZZI  13 81
M  ZZM  14 1
M  ZZI  14 113
M  ZZM  15 34
M  ZZI  15 231
M  ZZM  16 1
M  ZZI  16 111
M  ZZM  17 1
M  ZZI  17 111
M  ZZM  18 1
M  ZZI  18 113
M  ZZM  19 1
M  ZZI  19 112
M  ZZM  20 1
M  ZZI  20 112
M  ZZM  21 1
M  ZZI  21 112
M  ZZM  22 1
M  ZZI  22 112
M  ZZM  23 1
M  ZZI  23 112
M  ZZM  24 1
M  ZZI  24 113
M  ZZM  25 3
M  ZZI  25 121
M  ZZM  26 7
M  ZZI  26 81
M  ZZM  27 10
M  ZZI  27 211
M  ZZM  28 1
M  ZZI  28 113
M  ZZM  29 37
M  ZZI  29 124
M  ZZM  30 37
M  ZZI  30 124
M  ZZM  31 37
M  ZZI  31 125
M  ZZM  32 37
M  ZZI  32 125
M  ZZM  33 37
M  ZZI  33 125
M  ZZM  34 37
M  ZZI  34 125
M  ZZM  35 1
M  ZZI  35 112
M  ZZM  36 1
M  ZZI  36 112
M  ZZM  37 1
M  ZZI  37 112
M  ZZM  38 1
M  ZZI  38 112
M  ZZM  39 5
M  ZZI  39 1
M  ZZM  40 5
M  ZZI  40 1
M  ZZM  41 5
M  ZZI  41 1
M  ZZM  42 28
M  ZZI  42 11
M  ZZM  43 5
M  ZZI  43 1
M  ZZM  44 5
M  ZZI  44 1
M  ZZM  45 5
M  ZZI  45 1
M  ZZM  46 5
M  ZZI  46 1
M  ZZM  47 28
M  ZZI  47 11
M  ZZM  48 5
M  ZZI  48 1
M  ZZM  49 36
M  ZZI  49 17
M  ZZM  50 36
M  ZZI  50 17
M  ZZM  51 5
M  ZZI  51 1
M  ZZM  52 5
M  ZZI  52 1
M  ZZM  53 5
M  ZZI  53 1
M  ZZM  54 5
M  ZZI  54 1
M  ZZM  55 5
M  ZZI  55 1
M  ZZM  56 5
M  ZZI  56 1
M  ZZM  57 5
M  ZZI  57 1
M  ZZM  58 5
M  ZZI  58 1
M  ZZM  59 5
M  ZZI  59 1
M  ZZM  60 5
M  ZZI  60 1
M  ZZM  61 5
M  ZZI  61 1
M  ZZM  62 5
M  ZZI  62 1
M  ZZM  63 5
M  ZZI  63 1
M  ZZM  64 5
M  ZZI  64 1
M  ZZM  65 5
M  ZZI  65 1
M  ZZM  66 5
M  ZZI  66 1
M  ZZM  67 5
M  ZZI  67 1
M  ZZM  68 5
M  ZZI  68 1
M  ZZM  69 28
M  ZZI  69 11
M  ZZM  70 5
M  ZZI  70 1
M  ZZM  71 5
M  ZZI  71 1
M  ZZM  72 5
M  ZZI  72 1
M  ZZM  73 5
M  ZZI  73 1
M  ZZM  74 5
M  ZZI  74 1
M  ZZM  75 5
M  ZZI  75 1
M  ZZM  76 5
M  ZZI  76 1
M  ZZM  77 5
M  ZZI  77 1
M  ZZM  78 5
M  ZZI  78 1
M  ZZM  79 5
M  ZZI  79 1
M  ZZM  80 5
M  ZZI  80 1
M  ZZM  81 5
M  ZZI  81 1
M  ZZM  82 5
M  ZZI  82 1
M  CHG  1  15   1
M  END
> <IX>
1

> <NAME>
IAPBIR2_6XJK_1.pdb

> <Score>
-12.438096

> <Natom>
82

> <Nflex>
9

> <Hbond>
-7.384052

> <Hphob>
-5.181282

> <VwInt>
-47.103002

> <Dsolv>
15.403354

> <SolEl>
41.662267

> <Eintl>
20.614008

> <RecConf>
ND

> <projPath>
IAPBIR2_maps/

> <NAME_>
IAPBIR2_6XJK_1.pdb

$$$$
