IAPBIR2_6W8L_13.pdb
  MOLSOFT 04032206403D

 82 85  0  0  1  0  0  0  0  0999 V2000
   19.6739   50.6808   22.5926 C   0  0  0  0  0  0  0  0  0  0  0  0
   18.1838   50.4736   22.5324 C   0  0  0  0  0  0  0  0  0  0  0  0
   17.4744   50.4410   23.5287 O   0  0  0  0  0  0  0  0  0  0  0  0
   17.7345   50.2921   21.2465 N   0  0  0  0  0  0  0  0  0  0  0  0
   16.3376   50.1106   20.9073 C   0  0  2  0  0  0  0  0  0  0  0  0
   15.7761   48.7315   21.2065 C   0  0  0  0  0  0  0  0  0  0  0  0
   14.5828   48.6770   20.3846 N   0  0  0  0  0  0  0  0  0  0  0  0
   13.3339   48.1024   20.6636 C   0  0  0  0  0  0  0  0  0  0  0  0
   12.4008   48.2137   19.8799 O   0  0  0  0  0  0  0  0  0  0  0  0
   13.1863   47.2865   21.9594 C   0  0  1  0  0  0  0  0  0  0  0  0
   13.4536   48.1725   23.0989 N   0  0  0  0  0  0  0  0  0  0  0  0
   12.6615   49.2328   23.4991 C   0  0  0  0  0  0  0  0  0  0  0  0
   11.6502   49.5941   22.9165 O   0  0  0  0  0  0  0  0  0  0  0  0
   13.1928   49.9239   24.7620 C   0  0  1  0  0  0  0  0  0  0  0  0
   14.4635   50.7298   24.5253 N   0  3  0  0  0  0  0  0  0  0  0  0
   14.3414   51.9193   23.6255 C   0  0  0  0  0  0  0  0  0  0  0  0
   12.1334   50.7966   25.4312 C   0  0  0  0  0  0  0  0  0  0  0  0
   11.8534   46.4984   22.0922 C   0  0  0  0  0  0  0  0  0  0  0  0
   11.7550   45.3619   21.0651 C   0  0  0  0  0  0  0  0  0  0  0  0
   10.4492   44.5866   21.1890 C   0  0  0  0  0  0  0  0  0  0  0  0
   10.2085   44.0662   22.5988 C   0  0  0  0  0  0  0  0  0  0  0  0
   10.3507   45.1575   23.6396 C   0  0  0  0  0  0  0  0  0  0  0  0
   11.6740   45.8880   23.4910 C   0  0  0  0  0  0  0  0  0  0  0  0
   14.7699   49.4974   19.1926 C   0  0  2  0  0  0  0  0  0  0  0  0
   14.8999   48.6503   17.9327 C   0  0  0  0  0  0  0  0  0  0  0  0
   14.7593   47.4375   17.9168 O   0  0  0  0  0  0  0  0  0  0  0  0
   15.1747   49.4000   16.8087 N   0  0  0  0  0  0  0  0  0  0  0  0
   15.3896   48.8100   15.5021 C   0  0  1  0  0  0  0  0  0  0  0  0
   14.1777   49.0058   14.6170 C   0  0  0  0  0  0  0  0  0  0  0  0
   14.3021   49.4186   13.2842 C   0  0  0  0  0  0  0  0  0  0  0  0
   13.1587   49.5865   12.5089 C   0  0  0  0  0  0  0  0  0  0  0  0
   11.9033   49.3229   13.0230 C   0  0  0  0  0  0  0  0  0  0  0  0
   11.7756   48.8820   14.3242 C   0  0  0  0  0  0  0  0  0  0  0  0
   12.9014   48.7183   15.1084 C   0  0  0  0  0  0  0  0  0  0  0  0
   15.6414   49.7245   12.6716 C   0  0  0  0  0  0  0  0  0  0  0  0
   16.7901   49.1097   13.4492 C   0  0  0  0  0  0  0  0  0  0  0  0
   16.6657   49.4161   14.9249 C   0  0  0  0  0  0  0  0  0  0  0  0
   16.0767   50.2532   19.4233 C   0  0  0  0  0  0  0  0  0  0  0  0
   20.0093   51.3052   21.7581 H   0  0  0  0  0  0  0  0  0  0  0  0
   20.1828   49.7143   22.5441 H   0  0  0  0  0  0  0  0  0  0  0  0
   19.9369   51.1847   23.5258 H   0  0  0  0  0  0  0  0  0  0  0  0
   18.4239   50.2202   20.5068 H   0  0  0  0  0  0  0  0  0  0  0  0
   15.7624   50.8662   21.4491 H   0  0  0  0  0  0  0  0  0  0  0  0
   16.4491   47.9394   20.8765 H   0  0  0  0  0  0  0  0  0  0  0  0
   15.5943   48.5834   22.2642 H   0  0  0  0  0  0  0  0  0  0  0  0
   13.9992   46.5601   21.9490 H   0  0  0  0  0  0  0  0  0  0  0  0
   14.2812   47.9688   23.6453 H   0  0  0  0  0  0  0  0  0  0  0  0
   13.4906   49.1407   25.4631 H   0  0  0  0  0  0  0  0  0  0  0  0
   14.8316   51.0518   25.4305 H   0  0  0  0  0  0  0  0  0  0  0  0
   15.2118   50.1167   24.1587 H   0  0  0  0  0  0  0  0  0  0  0  0
   15.3468   52.3213   23.4740 H   0  0  0  0  0  0  0  0  0  0  0  0
   13.7136   52.6674   24.1163 H   0  0  0  0  0  0  0  0  0  0  0  0
   13.9070   51.5995   22.6746 H   0  0  0  0  0  0  0  0  0  0  0  0
   12.5291   51.2826   26.3284 H   0  0  0  0  0  0  0  0  0  0  0  0
   11.2753   50.1878   25.7318 H   0  0  0  0  0  0  0  0  0  0  0  0
   11.7525   51.5720   24.7599 H   0  0  0  0  0  0  0  0  0  0  0  0
   11.0193   47.1871   21.9157 H   0  0  0  0  0  0  0  0  0  0  0  0
   11.8250   45.7505   20.0468 H   0  0  0  0  0  0  0  0  0  0  0  0
   12.5954   44.6719   21.1951 H   0  0  0  0  0  0  0  0  0  0  0  0
    9.6152   45.2316   20.8941 H   0  0  0  0  0  0  0  0  0  0  0  0
   10.4561   43.7482   20.4881 H   0  0  0  0  0  0  0  0  0  0  0  0
    9.2128   43.6193   22.6719 H   0  0  0  0  0  0  0  0  0  0  0  0
   10.9263   43.2747   22.8206 H   0  0  0  0  0  0  0  0  0  0  0  0
    9.5235   45.8687   23.5443 H   0  0  0  0  0  0  0  0  0  0  0  0
   10.2808   44.7198   24.6409 H   0  0  0  0  0  0  0  0  0  0  0  0
   12.4832   45.1789   23.7006 H   0  0  0  0  0  0  0  0  0  0  0  0
   11.7146   46.6642   24.2584 H   0  0  0  0  0  0  0  0  0  0  0  0
   13.9157   50.1761   19.0825 H   0  0  0  0  0  0  0  0  0  0  0  0
   15.1809   50.4126   16.8718 H   0  0  0  0  0  0  0  0  0  0  0  0
   15.5414   47.7291   15.6123 H   0  0  0  0  0  0  0  0  0  0  0  0
   13.2437   49.9218   11.4797 H   0  0  0  0  0  0  0  0  0  0  0  0
   11.0220   49.4514   12.4027 H   0  0  0  0  0  0  0  0  0  0  0  0
   10.7943   48.6556   14.7288 H   0  0  0  0  0  0  0  0  0  0  0  0
   12.7681   48.3541   16.1223 H   0  0  0  0  0  0  0  0  0  0  0  0
   15.6769   49.3533   11.6417 H   0  0  0  0  0  0  0  0  0  0  0  0
   15.7663   50.8123   12.6331 H   0  0  0  0  0  0  0  0  0  0  0  0
   16.8021   48.0238   13.3018 H   0  0  0  0  0  0  0  0  0  0  0  0
   17.7347   49.5133   13.0736 H   0  0  0  0  0  0  0  0  0  0  0  0
   16.6789   50.5036   15.0667 H   0  0  0  0  0  0  0  0  0  0  0  0
   17.5378   49.0312   15.4660 H   0  0  0  0  0  0  0  0  0  0  0  0
   15.9855   51.3027   19.1286 H   0  0  0  0  0  0  0  0  0  0  0  0
   16.9043   49.8259   18.8417 H   0  0  0  0  0  0  0  0  0  0  0  0
  1 39  1  0  0  0  0
  1 40  1  0  0  0  0
  1 41  1  0  0  0  0
  1  2  1  0  0  0  0
  2  3  2  0  0  0  0
  2  4  1  0  0  0  0
  4 42  1  0  0  0  0
  5  4  1  0  0  0  0
  5 43  1  0  0  0  0
  5 38  1  0  0  0  0
  5  6  1  0  0  0  0
  6  7  1  0  0  0  0
  6 44  1  0  0  0  0
  6 45  1  0  0  0  0
 24  7  1  0  0  0  0
  7  8  1  0  0  0  0
  8  9  2  0  0  0  0
 10  8  1  0  0  0  0
 10 46  1  0  0  0  0
 10 11  1  0  0  0  0
 10 18  1  0  0  0  0
 11 47  1  0  0  0  0
 11 12  1  0  0  0  0
 12 13  2  0  0  0  0
 14 12  1  0  0  0  0
 14 48  1  0  0  0  0
 14 17  1  0  0  0  0
 14 15  1  0  0  0  0
 15 49  1  0  0  0  0
 15 50  1  0  0  0  0
 15 16  1  0  0  0  0
 16 51  1  0  0  0  0
 16 52  1  0  0  0  0
 16 53  1  0  0  0  0
 17 54  1  0  0  0  0
 17 55  1  0  0  0  0
 17 56  1  0  0  0  0
 18 57  1  0  0  0  0
 18 19  1  0  0  0  0
 18 23  1  0  0  0  0
 19 58  1  0  0  0  0
 19 59  1  0  0  0  0
 19 20  1  0  0  0  0
 20 60  1  0  0  0  0
 20 61  1  0  0  0  0
 20 21  1  0  0  0  0
 21 62  1  0  0  0  0
 21 63  1  0  0  0  0
 21 22  1  0  0  0  0
 22 64  1  0  0  0  0
 22 65  1  0  0  0  0
 22 23  1  0  0  0  0
 23 66  1  0  0  0  0
 23 67  1  0  0  0  0
 24 38  1  0  0  0  0
 24 68  1  0  0  0  0
 24 25  1  0  0  0  0
 25 26  2  0  0  0  0
 25 27  1  0  0  0  0
 27 69  1  0  0  0  0
 28 27  1  0  0  0  0
 28 70  1  0  0  0  0
 28 29  1  0  0  0  0
 28 37  1  0  0  0  0
 29 30  2  0  0  0  0
 29 34  1  0  0  0  0
 30 35  1  0  0  0  0
 30 31  1  0  0  0  0
 31 71  1  0  0  0  0
 31 32  2  0  0  0  0
 32 72  1  0  0  0  0
 32 33  1  0  0  0  0
 33 73  1  0  0  0  0
 33 34  2  0  0  0  0
 34 74  1  0  0  0  0
 35 75  1  0  0  0  0
 35 76  1  0  0  0  0
 35 36  1  0  0  0  0
 36 77  1  0  0  0  0
 36 78  1  0  0  0  0
 36 37  1  0  0  0  0
 37 79  1  0  0  0  0
 37 80  1  0  0  0  0
 38 81  1  0  0  0  0
 38 82  1  0  0  0  0
M  ZZC   1 c1
M  ZZC   2 c2
M  ZZC   3 o1
M  ZZC   4 n1
M  ZZC   5 c3
M  ZZC   6 c4
M  ZZC   7 n2
M  ZZC   8 c5
M  ZZC   9 o2
M  ZZC  10 c6
M  ZZC  11 n3
M  ZZC  12 c7
M  ZZC  13 o3
M  ZZC  14 c8
M  ZZC  15 n4
M  ZZC  16 c9
M  ZZC  17 c10
M  ZZC  18 c11
M  ZZC  19 c12
M  ZZC  20 c13
M  ZZC  21 c14
M  ZZC  22 c15
M  ZZC  23 c16
M  ZZC  24 c17
M  ZZC  25 c18
M  ZZC  26 o4
M  ZZC  27 n5
M  ZZC  28 c19
M  ZZC  29 c20
M  ZZC  30 c21
M  ZZC  31 c22
M  ZZC  32 c23
M  ZZC  33 c24
M  ZZC  34 c25
M  ZZC  35 c26
M  ZZC  36 c27
M  ZZC  37 c28
M  ZZC  38 c29
M  ZZC  39 h11
M  ZZC  40 h12
M  ZZC  41 h13
M  ZZC  42 h01
M  ZZC  43 h31
M  ZZC  44 h41
M  ZZC  45 h42
M  ZZC  46 h61
M  ZZC  47 h02
M  ZZC  48 h81
M  ZZC  49 h03
M  ZZC  50 h04
M  ZZC  51 h91
M  ZZC  52 h92
M  ZZC  53 h93
M  ZZC  54 h101
M  ZZC  55 h102
M  ZZC  56 h103
M  ZZC  57 h111
M  ZZC  58 h121
M  ZZC  59 h122
M  ZZC  60 h131
M  ZZC  61 h132
M  ZZC  62 h141
M  ZZC  63 h142
M  ZZC  64 h151
M  ZZC  65 h152
M  ZZC  66 h161
M  ZZC  67 h162
M  ZZC  68 h171
M  ZZC  69 h51
M  ZZC  70 h191
M  ZZC  71 h221
M  ZZC  72 h231
M  ZZC  73 h241
M  ZZC  74 h251
M  ZZC  75 h261
M  ZZC  76 h262
M  ZZC  77 h271
M  ZZC  78 h272
M  ZZC  79 h281
M  ZZC  80 h282
M  ZZC  81 h291
M  ZZC  82 h292
M  ZZM   1 1
M  ZZI   1 111
M  ZZM   2 3
M  ZZI   2 121
M  ZZM   3 7
M  ZZI   3 81
M  ZZM   4 10
M  ZZI   4 211
M  ZZM   5 1
M  ZZI   5 113
M  ZZM   6 1
M  ZZI   6 112
M  ZZM   7 10
M  ZZI   7 192
M  ZZM   8 3
M  ZZI   8 121
M  ZZM   9 7
M  ZZI   9 81
M  ZZM  10 1
M  ZZI  10 113
M  ZZM  11 10
M  ZZI  11 211
M  ZZM  12 3
M  ZZI  12 121
M  ZZM  13 7
M  ZZI  13 81
M  ZZM  14 1
M  ZZI  14 113
M  ZZM  15 34
M  ZZI  15 231
M  ZZM  16 1
M  ZZI  16 111
M  ZZM  17 1
M  ZZI  17 111
M  ZZM  18 1
M  ZZI  18 113
M  ZZM  19 1
M  ZZI  19 112
M  ZZM  20 1
M  ZZI  20 112
M  ZZM  21 1
M  ZZI  21 112
M  ZZM  22 1
M  ZZI  22 112
M  ZZM  23 1
M  ZZI  23 112
M  ZZM  24 1
M  ZZI  24 113
M  ZZM  25 3
M  ZZI  25 121
M  ZZM  26 7
M  ZZI  26 81
M  ZZM  27 10
M  ZZI  27 211
M  ZZM  28 1
M  ZZI  28 113
M  ZZM  29 37
M  ZZI  29 124
M  ZZM  30 37
M  ZZI  30 124
M  ZZM  31 37
M  ZZI  31 125
M  ZZM  32 37
M  ZZI  32 125
M  ZZM  33 37
M  ZZI  33 125
M  ZZM  34 37
M  ZZI  34 125
M  ZZM  35 1
M  ZZI  35 112
M  ZZM  36 1
M  ZZI  36 112
M  ZZM  37 1
M  ZZI  37 112
M  ZZM  38 1
M  ZZI  38 112
M  ZZM  39 5
M  ZZI  39 1
M  ZZM  40 5
M  ZZI  40 1
M  ZZM  41 5
M  ZZI  41 1
M  ZZM  42 28
M  ZZI  42 11
M  ZZM  43 5
M  ZZI  43 1
M  ZZM  44 5
M  ZZI  44 1
M  ZZM  45 5
M  ZZI  45 1
M  ZZM  46 5
M  ZZI  46 1
M  ZZM  47 28
M  ZZI  47 11
M  ZZM  48 5
M  ZZI  48 1
M  ZZM  49 36
M  ZZI  49 17
M  ZZM  50 36
M  ZZI  50 17
M  ZZM  51 5
M  ZZI  51 1
M  ZZM  52 5
M  ZZI  52 1
M  ZZM  53 5
M  ZZI  53 1
M  ZZM  54 5
M  ZZI  54 1
M  ZZM  55 5
M  ZZI  55 1
M  ZZM  56 5
M  ZZI  56 1
M  ZZM  57 5
M  ZZI  57 1
M  ZZM  58 5
M  ZZI  58 1
M  ZZM  59 5
M  ZZI  59 1
M  ZZM  60 5
M  ZZI  60 1
M  ZZM  61 5
M  ZZI  61 1
M  ZZM  62 5
M  ZZI  62 1
M  ZZM  63 5
M  ZZI  63 1
M  ZZM  64 5
M  ZZI  64 1
M  ZZM  65 5
M  ZZI  65 1
M  ZZM  66 5
M  ZZI  66 1
M  ZZM  67 5
M  ZZI  67 1
M  ZZM  68 5
M  ZZI  68 1
M  ZZM  69 28
M  ZZI  69 11
M  ZZM  70 5
M  ZZI  70 1
M  ZZM  71 5
M  ZZI  71 1
M  ZZM  72 5
M  ZZI  72 1
M  ZZM  73 5
M  ZZI  73 1
M  ZZM  74 5
M  ZZI  74 1
M  ZZM  75 5
M  ZZI  75 1
M  ZZM  76 5
M  ZZI  76 1
M  ZZM  77 5
M  ZZI  77 1
M  ZZM  78 5
M  ZZI  78 1
M  ZZM  79 5
M  ZZI  79 1
M  ZZM  80 5
M  ZZI  80 1
M  ZZM  81 5
M  ZZI  81 1
M  ZZM  82 5
M  ZZI  82 1
M  CHG  1  15   1
M  END
> <IX>
1

> <NAME>
IAPBIR2_6W8L_13.pdb

> <Score>
-14.911348

> <Natom>
82

> <Nflex>
9

> <Hbond>
-3.022057

> <Hphob>
-4.795109

> <VwInt>
-49.918062

> <Dsolv>
14.14796

> <SolEl>
29.683478

> <Eintl>
17.105294

> <RecConf>
ND

> <projPath>
IAPBIR2_maps/

> <NAME_>
IAPBIR2_6W8L_13.pdb

$$$$
