IAPBIR2_2HYY_9.pdb
  MOLSOFT 04032206323D

 51 51  0  0  1  0  0  0  0  0999 V2000
   23.3616   21.7135   16.7765 O   0  0  0  0  0  0  0  0  0  0  0  0
   22.8188   22.2252   15.8064 C   0  0  0  0  0  0  0  0  0  0  0  0
   21.6335   21.7718   15.2631 N   0  0  0  0  0  0  0  0  0  0  0  0
   20.9590   20.5923   15.8021 C   0  0  1  0  0  0  0  0  0  0  0  0
   19.6743   21.0233   16.5140 C   0  0  0  0  0  0  0  0  0  0  0  0
   18.6843   21.4501   15.9325 O   0  0  0  0  0  0  0  0  0  0  0  0
   19.7683   20.9222   17.8902 N   0  0  0  0  0  0  0  0  0  0  0  0
   18.6799   21.2705   18.7654 C   0  0  0  0  0  0  0  0  0  0  0  0
   20.6903   19.6078   14.6704 C   0  0  0  0  0  0  0  0  0  0  0  0
   19.9614   18.3194   15.0642 C   0  0  0  0  0  0  0  0  0  0  0  0
   20.7007   17.5255   16.1391 C   0  0  0  0  0  0  0  0  0  0  0  0
   19.7498   17.4502   13.8272 C   0  0  0  0  0  0  0  0  0  0  0  0
   23.4325   23.4222   15.0935 C   0  0  2  0  0  0  0  0  0  0  0  0
   24.0397   23.0158   13.8555 O   0  0  0  0  0  0  0  0  0  0  0  0
   24.4795   24.0684   16.0257 C   0  0  1  0  0  0  0  0  0  0  0  0
   25.5998   23.0949   16.2857 N   0  3  0  0  0  0  0  0  0  0  0  0
   25.0614   25.3388   15.4071 C   0  0  0  0  0  0  0  0  0  0  0  0
   26.0294   26.1149   16.2689 C   0  0  0  0  0  0  0  0  0  0  0  0
   25.6943   26.5249   17.5568 C   0  0  0  0  0  0  0  0  0  0  0  0
   26.5237   27.3847   18.2588 C   0  0  0  0  0  0  0  0  0  0  0  0
   27.7132   27.8157   17.7102 C   0  0  0  0  0  0  0  0  0  0  0  0
   28.0835   27.3679   16.4594 C   0  0  0  0  0  0  0  0  0  0  0  0
   27.2508   26.5282   15.7433 C   0  0  0  0  0  0  0  0  0  0  0  0
   21.2004   22.2596   14.4839 H   0  0  0  0  0  0  0  0  0  0  0  0
   21.6280   20.1190   16.5265 H   0  0  0  0  0  0  0  0  0  0  0  0
   20.6200   20.5770   18.3193 H   0  0  0  0  0  0  0  0  0  0  0  0
   17.9634   21.9053   18.2431 H   0  0  0  0  0  0  0  0  0  0  0  0
   19.0907   21.7906   19.6341 H   0  0  0  0  0  0  0  0  0  0  0  0
   18.1894   20.3498   19.0894 H   0  0  0  0  0  0  0  0  0  0  0  0
   20.1020   20.1231   13.9153 H   0  0  0  0  0  0  0  0  0  0  0  0
   21.6416   19.3552   14.1915 H   0  0  0  0  0  0  0  0  0  0  0  0
   18.9794   18.5903   15.4546 H   0  0  0  0  0  0  0  0  0  0  0  0
   20.1999   16.5730   16.3362 H   0  0  0  0  0  0  0  0  0  0  0  0
   20.7355   18.0696   17.0866 H   0  0  0  0  0  0  0  0  0  0  0  0
   21.7290   17.3063   15.8350 H   0  0  0  0  0  0  0  0  0  0  0  0
   19.2130   16.5312   14.0810 H   0  0  0  0  0  0  0  0  0  0  0  0
   20.7052   17.1608   13.3804 H   0  0  0  0  0  0  0  0  0  0  0  0
   19.1691   17.9764   13.0633 H   0  0  0  0  0  0  0  0  0  0  0  0
   22.6573   24.1527   14.8485 H   0  0  0  0  0  0  0  0  0  0  0  0
   23.3301   22.7856   13.2237 H   0  0  0  0  0  0  0  0  0  0  0  0
   24.0429   24.2803   17.0054 H   0  0  0  0  0  0  0  0  0  0  0  0
   25.2325   22.2560   16.7651 H   0  0  0  0  0  0  0  0  0  0  0  0
   26.3339   23.4938   16.8860 H   0  0  0  0  0  0  0  0  0  0  0  0
   26.0357   22.7802   15.4076 H   0  0  0  0  0  0  0  0  0  0  0  0
   25.5497   25.0898   14.4596 H   0  0  0  0  0  0  0  0  0  0  0  0
   24.2308   26.0067   15.1643 H   0  0  0  0  0  0  0  0  0  0  0  0
   24.7474   26.2397   18.0031 H   0  0  0  0  0  0  0  0  0  0  0  0
   26.2253   27.7578   19.2313 H   0  0  0  0  0  0  0  0  0  0  0  0
   28.3509   28.5017   18.2591 H   0  0  0  0  0  0  0  0  0  0  0  0
   29.0240   27.6902   16.0302 H   0  0  0  0  0  0  0  0  0  0  0  0
   27.5592   26.2204   14.7485 H   0  0  0  0  0  0  0  0  0  0  0  0
  1  2  2  0  0  0  0
  2  3  1  0  0  0  0
 13  2  1  0  0  0  0
  4  3  1  0  0  0  0
  3 24  1  0  0  0  0
  4  5  1  0  0  0  0
  4 25  1  0  0  0  0
  4  9  1  0  0  0  0
  5  7  1  0  0  0  0
  5  6  2  0  0  0  0
  7  8  1  0  0  0  0
  7 26  1  0  0  0  0
  8 27  1  0  0  0  0
  8 28  1  0  0  0  0
  8 29  1  0  0  0  0
  9 30  1  0  0  0  0
  9 31  1  0  0  0  0
  9 10  1  0  0  0  0
 10 32  1  0  0  0  0
 10 12  1  0  0  0  0
 10 11  1  0  0  0  0
 11 33  1  0  0  0  0
 11 34  1  0  0  0  0
 11 35  1  0  0  0  0
 12 36  1  0  0  0  0
 12 37  1  0  0  0  0
 12 38  1  0  0  0  0
 13 39  1  0  0  0  0
 13 14  1  0  0  0  0
 13 15  1  0  0  0  0
 14 40  1  0  0  0  0
 15 41  1  0  0  0  0
 15 16  1  0  0  0  0
 15 17  1  0  0  0  0
 16 42  1  0  0  0  0
 16 43  1  0  0  0  0
 16 44  1  0  0  0  0
 17 45  1  0  0  0  0
 17 46  1  0  0  0  0
 17 18  1  0  0  0  0
 18 19  1  0  0  0  0
 18 23  2  0  0  0  0
 19 47  1  0  0  0  0
 19 20  2  0  0  0  0
 20 48  1  0  0  0  0
 20 21  1  0  0  0  0
 21 49  1  0  0  0  0
 21 22  2  0  0  0  0
 22 50  1  0  0  0  0
 22 23  1  0  0  0  0
 23 51  1  0  0  0  0
M  ZZC   1 o1
M  ZZC   2 c1
M  ZZC   3 n1
M  ZZC   4 c2
M  ZZC   5 c3
M  ZZC   6 o2
M  ZZC   7 n2
M  ZZC   8 c4
M  ZZC   9 c5
M  ZZC  10 c6
M  ZZC  11 c7
M  ZZC  12 c8
M  ZZC  13 c9
M  ZZC  14 o3
M  ZZC  15 c10
M  ZZC  16 n3
M  ZZC  17 c11
M  ZZC  18 c12
M  ZZC  19 c13
M  ZZC  20 c14
M  ZZC  21 c15
M  ZZC  22 c16
M  ZZC  23 c17
M  ZZC  24 h11
M  ZZC  25 h21
M  ZZC  26 h01
M  ZZC  27 h41
M  ZZC  28 h42
M  ZZC  29 h43
M  ZZC  30 h51
M  ZZC  31 h52
M  ZZC  32 h61
M  ZZC  33 h71
M  ZZC  34 h72
M  ZZC  35 h73
M  ZZC  36 h81
M  ZZC  37 h82
M  ZZC  38 h83
M  ZZC  39 h91
M  ZZC  40 h31
M  ZZC  41 h101
M  ZZC  42 h02
M  ZZC  43 h32
M  ZZC  44 h33
M  ZZC  45 h111
M  ZZC  46 h112
M  ZZC  47 h131
M  ZZC  48 h141
M  ZZC  49 h151
M  ZZC  50 h161
M  ZZC  51 h171
M  ZZM   1 7
M  ZZI   1 81
M  ZZM   2 3
M  ZZI   2 121
M  ZZM   3 10
M  ZZI   3 211
M  ZZM   4 1
M  ZZI   4 113
M  ZZM   5 3
M  ZZI   5 121
M  ZZM   6 7
M  ZZI   6 81
M  ZZM   7 10
M  ZZI   7 211
M  ZZM   8 1
M  ZZI   8 111
M  ZZM   9 1
M  ZZI   9 112
M  ZZM  10 1
M  ZZI  10 113
M  ZZM  11 1
M  ZZI  11 111
M  ZZM  12 1
M  ZZI  12 111
M  ZZM  13 1
M  ZZI  13 113
M  ZZM  14 6
M  ZZI  14 60
M  ZZM  15 1
M  ZZI  15 113
M  ZZM  16 34
M  ZZI  16 231
M  ZZM  17 1
M  ZZI  17 112
M  ZZM  18 37
M  ZZI  18 124
M  ZZM  19 37
M  ZZI  19 125
M  ZZM  20 37
M  ZZI  20 125
M  ZZM  21 37
M  ZZI  21 125
M  ZZM  22 37
M  ZZI  22 125
M  ZZM  23 37
M  ZZI  23 125
M  ZZM  24 28
M  ZZI  24 11
M  ZZM  25 5
M  ZZI  25 1
M  ZZM  26 28
M  ZZI  26 11
M  ZZM  27 5
M  ZZI  27 1
M  ZZM  28 5
M  ZZI  28 1
M  ZZM  29 5
M  ZZI  29 1
M  ZZM  30 5
M  ZZI  30 1
M  ZZM  31 5
M  ZZI  31 1
M  ZZM  32 5
M  ZZI  32 1
M  ZZM  33 5
M  ZZI  33 1
M  ZZM  34 5
M  ZZI  34 1
M  ZZM  35 5
M  ZZI  35 1
M  ZZM  36 5
M  ZZI  36 1
M  ZZM  37 5
M  ZZI  37 1
M  ZZM  38 5
M  ZZI  38 1
M  ZZM  39 5
M  ZZI  39 1
M  ZZM  40 21
M  ZZI  40 20
M  ZZM  41 5
M  ZZI  41 1
M  ZZM  42 36
M  ZZI  42 17
M  ZZM  43 36
M  ZZI  43 17
M  ZZM  44 36
M  ZZI  44 17
M  ZZM  45 5
M  ZZI  45 1
M  ZZM  46 5
M  ZZI  46 1
M  ZZM  47 5
M  ZZI  47 1
M  ZZM  48 5
M  ZZI  48 1
M  ZZM  49 5
M  ZZI  49 1
M  ZZM  50 5
M  ZZI  50 1
M  ZZM  51 5
M  ZZI  51 1
M  CHG  1  16   1
M  END
> <IX>
1

> <NAME>
IAPBIR2_2HYY_9.pdb

> <Score>
-25.911584

> <Natom>
51

> <Nflex>
9

> <Hbond>
-5.641367

> <Hphob>
-5.167505

> <VwInt>
-39.174699

> <Dsolv>
11.849737

> <SolEl>
22.37584

> <Eintl>
3.237739

> <RecConf>
ND

> <projPath>
IAPBIR2_maps/

> <NAME_>
IAPBIR2_2HYY_9.pdb

$$$$
