IAPBIR2_4QNQ_67.pdb
  MOLSOFT 04032206373D

 71 74  0  0  1  0  0  0  0  0999 V2000
    7.5190   43.0150   25.5947 O   0  0  0  0  0  0  0  0  0  0  0  0
    8.5048   43.6026   24.8189 C   0  0  0  0  0  0  0  0  0  0  0  0
    8.3357   43.7502   23.4525 C   0  0  0  0  0  0  0  0  0  0  0  0
    9.3488   44.3078   22.6753 C   0  0  0  0  0  0  0  0  0  0  0  0
   10.5531   44.6717   23.2902 C   0  0  0  0  0  0  0  0  0  0  0  0
   11.7079   45.1971   22.4815 C   0  0  2  0  0  0  0  0  0  0  0  0
   11.6938   46.6515   22.4165 N   0  0  0  0  0  0  0  0  0  0  0  0
   12.8069   47.3593   22.0040 C   0  0  0  0  0  0  0  0  0  0  0  0
   13.8959   46.8360   21.8407 O   0  0  0  0  0  0  0  0  0  0  0  0
   12.5624   48.8408   21.7030 C   0  0  1  0  0  0  0  0  0  0  0  0
   12.4471   49.7847   22.9180 C   0  0  0  0  0  0  0  0  0  0  0  0
   11.5715   50.9947   22.5535 C   0  0  0  0  0  0  0  0  0  0  0  0
   11.8966   49.1519   24.2029 C   0  0  0  0  0  0  0  0  0  0  0  0
   13.8923   50.2255   23.1299 C   0  0  0  0  0  0  0  0  0  0  0  0
   14.5199   50.2500   21.7452 C   0  0  1  0  0  0  0  0  0  0  0  0
   15.8610   49.7823   21.8946 O   0  0  0  0  0  0  0  0  0  0  0  0
   16.7092   50.1171   20.7997 C   0  0  0  0  0  0  0  0  0  0  0  0
   16.4382   49.1984   19.6215 C   0  0  0  0  0  0  0  0  0  0  0  0
   15.1388   49.5601   18.9017 C   0  0  1  0  0  0  0  0  0  0  0  0
   15.1173   48.9673   17.5634 N   0  0  0  0  0  0  0  0  0  0  0  0
   15.9343   49.4095   16.5393 C   0  0  0  0  0  0  0  0  0  0  0  0
   16.7294   50.3298   16.6537 O   0  0  0  0  0  0  0  0  0  0  0  0
   15.7839   48.6260   15.2347 C   0  0  2  0  0  0  0  0  0  0  0  0
   16.9409   48.8549   14.2855 N   0  3  0  0  0  0  0  0  0  0  0  0
   16.9960   50.1380   13.5169 C   0  0  0  0  0  0  0  0  0  0  0  0
   14.4610   48.9433   14.5497 C   0  0  0  0  0  0  0  0  0  0  0  0
   13.9016   49.0055   19.6167 C   0  0  0  0  0  0  0  0  0  0  0  0
   13.0971   48.3113   19.0067 O   0  0  0  0  0  0  0  0  0  0  0  0
   13.7229   49.3312   20.9591 N   0  0  0  0  0  0  0  0  0  0  0  0
   11.6337   44.6116   21.0769 C   0  0  0  0  0  0  0  0  0  0  0  0
   10.3228   44.9950   20.4091 C   0  0  0  0  0  0  0  0  0  0  0  0
    9.1232   44.4753   21.1906 C   0  0  0  0  0  0  0  0  0  0  0  0
   10.6901   44.5377   24.6669 C   0  0  0  0  0  0  0  0  0  0  0  0
    9.6637   44.0252   25.4364 C   0  0  0  0  0  0  0  0  0  0  0  0
    6.8499   42.6478   24.9858 H   0  0  0  0  0  0  0  0  0  0  0  0
    7.4119   43.4245   22.9845 H   0  0  0  0  0  0  0  0  0  0  0  0
   12.6525   44.8758   22.9354 H   0  0  0  0  0  0  0  0  0  0  0  0
   10.8072   47.1261   22.5422 H   0  0  0  0  0  0  0  0  0  0  0  0
   11.6759   48.8942   21.0591 H   0  0  0  0  0  0  0  0  0  0  0  0
   11.5534   51.7315   23.3632 H   0  0  0  0  0  0  0  0  0  0  0  0
   10.5373   50.6892   22.3646 H   0  0  0  0  0  0  0  0  0  0  0  0
   11.9283   51.5082   21.6550 H   0  0  0  0  0  0  0  0  0  0  0  0
   10.8664   48.8070   24.0744 H   0  0  0  0  0  0  0  0  0  0  0  0
   11.8966   49.8741   25.0256 H   0  0  0  0  0  0  0  0  0  0  0  0
   12.5014   48.3021   24.5315 H   0  0  0  0  0  0  0  0  0  0  0  0
   13.9808   51.1982   23.6257 H   0  0  0  0  0  0  0  0  0  0  0  0
   14.4204   49.5121   23.7723 H   0  0  0  0  0  0  0  0  0  0  0  0
   14.4865   51.2500   21.2963 H   0  0  0  0  0  0  0  0  0  0  0  0
   16.6099   51.1758   20.5400 H   0  0  0  0  0  0  0  0  0  0  0  0
   17.7335   49.9765   21.1515 H   0  0  0  0  0  0  0  0  0  0  0  0
   17.2875   49.2627   18.9345 H   0  0  0  0  0  0  0  0  0  0  0  0
   16.3797   48.1632   19.9707 H   0  0  0  0  0  0  0  0  0  0  0  0
   15.0356   50.6449   18.7850 H   0  0  0  0  0  0  0  0  0  0  0  0
   14.4345   48.2306   17.3985 H   0  0  0  0  0  0  0  0  0  0  0  0
   15.8276   47.5573   15.4720 H   0  0  0  0  0  0  0  0  0  0  0  0
   17.8084   48.7865   14.8362 H   0  0  0  0  0  0  0  0  0  0  0  0
   16.9928   48.0709   13.6216 H   0  0  0  0  0  0  0  0  0  0  0  0
   16.1762   50.1470   12.7943 H   0  0  0  0  0  0  0  0  0  0  0  0
   17.9526   50.1615   12.9889 H   0  0  0  0  0  0  0  0  0  0  0  0
   16.9258   50.9777   14.2124 H   0  0  0  0  0  0  0  0  0  0  0  0
   13.6265   48.5030   15.1047 H   0  0  0  0  0  0  0  0  0  0  0  0
   14.4390   48.5511   13.5296 H   0  0  0  0  0  0  0  0  0  0  0  0
   14.2812   50.0218   14.5025 H   0  0  0  0  0  0  0  0  0  0  0  0
   12.4692   44.9799   20.4823 H   0  0  0  0  0  0  0  0  0  0  0  0
   11.7230   43.5221   21.1140 H   0  0  0  0  0  0  0  0  0  0  0  0
   10.2564   46.0835   20.3145 H   0  0  0  0  0  0  0  0  0  0  0  0
   10.2890   44.6106   19.3852 H   0  0  0  0  0  0  0  0  0  0  0  0
    8.8391   43.5124   20.7676 H   0  0  0  0  0  0  0  0  0  0  0  0
    8.2731   45.1452   21.0255 H   0  0  0  0  0  0  0  0  0  0  0  0
   11.6214   44.8167   25.1479 H   0  0  0  0  0  0  0  0  0  0  0  0
    9.7860   43.9248   26.5093 H   0  0  0  0  0  0  0  0  0  0  0  0
  1 35  1  0  0  0  0
  1  2  1  0  0  0  0
  2  3  1  0  0  0  0
  2 34  2  0  0  0  0
  3 36  1  0  0  0  0
  3  4  2  0  0  0  0
  4 32  1  0  0  0  0
  4  5  1  0  0  0  0
  6  5  1  0  0  0  0
  5 33  2  0  0  0  0
  6 30  1  0  0  0  0
  6 37  1  0  0  0  0
  6  7  1  0  0  0  0
  7 38  1  0  0  0  0
  7  8  1  0  0  0  0
  8  9  2  0  0  0  0
 10  8  1  0  0  0  0
 10 39  1  0  0  0  0
 10 11  1  0  0  0  0
 10 29  1  0  0  0  0
 11 13  1  0  0  0  0
 11 12  1  0  0  0  0
 11 14  1  0  0  0  0
 12 40  1  0  0  0  0
 12 41  1  0  0  0  0
 12 42  1  0  0  0  0
 13 43  1  0  0  0  0
 13 44  1  0  0  0  0
 13 45  1  0  0  0  0
 14 46  1  0  0  0  0
 14 47  1  0  0  0  0
 15 14  1  0  0  0  0
 15 48  1  0  0  0  0
 15 29  1  0  0  0  0
 15 16  1  0  0  0  0
 16 17  1  0  0  0  0
 17 18  1  0  0  0  0
 17 49  1  0  0  0  0
 17 50  1  0  0  0  0
 19 18  1  0  0  0  0
 18 51  1  0  0  0  0
 18 52  1  0  0  0  0
 19 27  1  0  0  0  0
 19 53  1  0  0  0  0
 19 20  1  0  0  0  0
 20 54  1  0  0  0  0
 20 21  1  0  0  0  0
 21 22  2  0  0  0  0
 23 21  1  0  0  0  0
 23 55  1  0  0  0  0
 23 26  1  0  0  0  0
 23 24  1  0  0  0  0
 24 56  1  0  0  0  0
 24 57  1  0  0  0  0
 24 25  1  0  0  0  0
 25 58  1  0  0  0  0
 25 59  1  0  0  0  0
 25 60  1  0  0  0  0
 26 61  1  0  0  0  0
 26 62  1  0  0  0  0
 26 63  1  0  0  0  0
 27 29  1  0  0  0  0
 27 28  2  0  0  0  0
 30 31  1  0  0  0  0
 30 64  1  0  0  0  0
 30 65  1  0  0  0  0
 31 32  1  0  0  0  0
 31 66  1  0  0  0  0
 31 67  1  0  0  0  0
 32 68  1  0  0  0  0
 32 69  1  0  0  0  0
 33 70  1  0  0  0  0
 33 34  1  0  0  0  0
 34 71  1  0  0  0  0
M  ZZC   1 o1
M  ZZC   2 c1
M  ZZC   3 c2
M  ZZC   4 c3
M  ZZC   5 c4
M  ZZC   6 c5
M  ZZC   7 n1
M  ZZC   8 c6
M  ZZC   9 o2
M  ZZC  10 c7
M  ZZC  11 c8
M  ZZC  12 c9
M  ZZC  13 c10
M  ZZC  14 c11
M  ZZC  15 c12
M  ZZC  16 o3
M  ZZC  17 c13
M  ZZC  18 c14
M  ZZC  19 c15
M  ZZC  20 n2
M  ZZC  21 c16
M  ZZC  22 o4
M  ZZC  23 c17
M  ZZC  24 n3
M  ZZC  25 c18
M  ZZC  26 c19
M  ZZC  27 c20
M  ZZC  28 o5
M  ZZC  29 n4
M  ZZC  30 c21
M  ZZC  31 c22
M  ZZC  32 c23
M  ZZC  33 c24
M  ZZC  34 c25
M  ZZC  35 h11
M  ZZC  36 h21
M  ZZC  37 h51
M  ZZC  38 h01
M  ZZC  39 h71
M  ZZC  40 h91
M  ZZC  41 h92
M  ZZC  42 h93
M  ZZC  43 h101
M  ZZC  44 h102
M  ZZC  45 h103
M  ZZC  46 h111
M  ZZC  47 h112
M  ZZC  48 h121
M  ZZC  49 h131
M  ZZC  50 h132
M  ZZC  51 h141
M  ZZC  52 h142
M  ZZC  53 h151
M  ZZC  54 h02
M  ZZC  55 h171
M  ZZC  56 h31
M  ZZC  57 h32
M  ZZC  58 h181
M  ZZC  59 h182
M  ZZC  60 h183
M  ZZC  61 h191
M  ZZC  62 h192
M  ZZC  63 h193
M  ZZC  64 h211
M  ZZC  65 h212
M  ZZC  66 h221
M  ZZC  67 h222
M  ZZC  68 h231
M  ZZC  69 h232
M  ZZC  70 h241
M  ZZC  71 h251
M  ZZM   1 6
M  ZZI   1 62
M  ZZM   2 37
M  ZZI   2 124
M  ZZM   3 37
M  ZZI   3 125
M  ZZM   4 37
M  ZZI   4 124
M  ZZM   5 37
M  ZZI   5 124
M  ZZM   6 1
M  ZZI   6 113
M  ZZM   7 10
M  ZZI   7 211
M  ZZM   8 3
M  ZZI   8 121
M  ZZM   9 7
M  ZZI   9 81
M  ZZM  10 1
M  ZZI  10 113
M  ZZM  11 1
M  ZZI  11 110
M  ZZM  12 1
M  ZZI  12 111
M  ZZM  13 1
M  ZZI  13 111
M  ZZM  14 1
M  ZZI  14 112
M  ZZM  15 1
M  ZZI  15 113
M  ZZM  16 6
M  ZZI  16 65
M  ZZM  17 1
M  ZZI  17 112
M  ZZM  18 1
M  ZZI  18 112
M  ZZM  19 1
M  ZZI  19 113
M  ZZM  20 10
M  ZZI  20 211
M  ZZM  21 3
M  ZZI  21 121
M  ZZM  22 7
M  ZZI  22 81
M  ZZM  23 1
M  ZZI  23 113
M  ZZM  24 34
M  ZZI  24 231
M  ZZM  25 1
M  ZZI  25 111
M  ZZM  26 1
M  ZZI  26 111
M  ZZM  27 3
M  ZZI  27 121
M  ZZM  28 7
M  ZZI  28 81
M  ZZM  29 10
M  ZZI  29 192
M  ZZM  30 1
M  ZZI  30 112
M  ZZM  31 1
M  ZZI  31 112
M  ZZM  32 1
M  ZZI  32 112
M  ZZM  33 37
M  ZZI  33 125
M  ZZM  34 37
M  ZZI  34 125
M  ZZM  35 29
M  ZZI  35 27
M  ZZM  36 5
M  ZZI  36 1
M  ZZM  37 5
M  ZZI  37 1
M  ZZM  38 28
M  ZZI  38 11
M  ZZM  39 5
M  ZZI  39 1
M  ZZM  40 5
M  ZZI  40 1
M  ZZM  41 5
M  ZZI  41 1
M  ZZM  42 5
M  ZZI  42 1
M  ZZM  43 5
M  ZZI  43 1
M  ZZM  44 5
M  ZZI  44 1
M  ZZM  45 5
M  ZZI  45 1
M  ZZM  46 5
M  ZZI  46 1
M  ZZM  47 5
M  ZZI  47 1
M  ZZM  48 5
M  ZZI  48 1
M  ZZM  49 5
M  ZZI  49 1
M  ZZM  50 5
M  ZZI  50 1
M  ZZM  51 5
M  ZZI  51 1
M  ZZM  52 5
M  ZZI  52 1
M  ZZM  53 5
M  ZZI  53 1
M  ZZM  54 28
M  ZZI  54 11
M  ZZM  55 5
M  ZZI  55 1
M  ZZM  56 36
M  ZZI  56 17
M  ZZM  57 36
M  ZZI  57 17
M  ZZM  58 5
M  ZZI  58 1
M  ZZM  59 5
M  ZZI  59 1
M  ZZM  60 5
M  ZZI  60 1
M  ZZM  61 5
M  ZZI  61 1
M  ZZM  62 5
M  ZZI  62 1
M  ZZM  63 5
M  ZZI  63 1
M  ZZM  64 5
M  ZZI  64 1
M  ZZM  65 5
M  ZZI  65 1
M  ZZM  66 5
M  ZZI  66 1
M  ZZM  67 5
M  ZZI  67 1
M  ZZM  68 5
M  ZZI  68 1
M  ZZM  69 5
M  ZZI  69 1
M  ZZM  70 5
M  ZZI  70 1
M  ZZM  71 5
M  ZZI  71 1
M  CHG  1  24   1
M  END
> <IX>
1

> <NAME>
IAPBIR2_4QNQ_67.pdb

> <Score>
-17.098167

> <Natom>
71

> <Nflex>
5

> <Hbond>
-4.748319

> <Hphob>
-5.095487

> <VwInt>
-49.076802

> <Dsolv>
23.229142

> <SolEl>
33.253928

> <Eintl>
8.394018

> <RecConf>
ND

> <projPath>
IAPBIR2_maps/

> <NAME_>
IAPBIR2_4QNQ_67.pdb

$$$$
