IAPBIR2_5GMP_2.pdb
  MOLSOFT 04032206333D

 48 48  0  0  1  0  0  0  0  0999 V2000
   22.0151   22.5309   14.5837 O   0  0  0  0  0  0  0  0  0  0  0  0
   22.9526   22.5538   15.3647 C   0  0  0  0  0  0  0  0  0  0  0  0
   22.8912   22.0457   16.6487 N   0  0  0  0  0  0  0  0  0  0  0  0
   21.6371   21.5697   17.2346 C   0  0  2  0  0  0  0  0  0  0  0  0
   21.7591   21.6572   18.7578 C   0  0  0  0  0  0  0  0  0  0  0  0
   22.8267   21.5708   19.3461 O   0  0  0  0  0  0  0  0  0  0  0  0
   20.5709   21.8103   19.4309 N   0  0  0  0  0  0  0  0  0  0  0  0
   21.2897   20.1343   16.8043 C   0  0  0  0  0  0  0  0  0  0  0  0
   20.2942   20.0418   15.6339 C   0  0  0  0  0  0  0  0  0  0  0  0
   18.9413   20.6491   15.9945 C   0  0  0  0  0  0  0  0  0  0  0  0
   20.1130   18.5857   15.2155 C   0  0  0  0  0  0  0  0  0  0  0  0
   24.2895   23.1668   14.9720 C   0  0  1  0  0  0  0  0  0  0  0  0
   24.2304   23.6357   13.6109 O   0  0  0  0  0  0  0  0  0  0  0  0
   24.6530   24.3495   15.9009 C   0  0  2  0  0  0  0  0  0  0  0  0
   23.6557   25.4485   15.6808 N   0  3  0  0  0  0  0  0  0  0  0  0
   26.0700   24.8900   15.6212 C   0  0  0  0  0  0  0  0  0  0  0  0
   26.5029   26.1237   16.3896 C   0  0  0  0  0  0  0  0  0  0  0  0
   26.1161   26.3868   17.7051 C   0  0  0  0  0  0  0  0  0  0  0  0
   26.5268   27.5491   18.3396 C   0  0  0  0  0  0  0  0  0  0  0  0
   27.3277   28.4639   17.6921 C   0  0  0  0  0  0  0  0  0  0  0  0
   27.7380   28.2049   16.4062 C   0  0  0  0  0  0  0  0  0  0  0  0
   27.3579   27.0355   15.7737 C   0  0  0  0  0  0  0  0  0  0  0  0
   23.7245   21.9884   17.2288 H   0  0  0  0  0  0  0  0  0  0  0  0
   20.8606   22.2679   16.9231 H   0  0  0  0  0  0  0  0  0  0  0  0
   20.5783   21.8652   20.4430 H   0  0  0  0  0  0  0  0  0  0  0  0
   19.6684   21.9382   18.9832 H   0  0  0  0  0  0  0  0  0  0  0  0
   22.2104   19.6045   16.5358 H   0  0  0  0  0  0  0  0  0  0  0  0
   20.8701   19.5840   17.6541 H   0  0  0  0  0  0  0  0  0  0  0  0
   20.6870   20.5730   14.7641 H   0  0  0  0  0  0  0  0  0  0  0  0
   18.1867   20.3699   15.2555 H   0  0  0  0  0  0  0  0  0  0  0  0
   18.9786   21.7409   16.0235 H   0  0  0  0  0  0  0  0  0  0  0  0
   18.6015   20.3092   16.9758 H   0  0  0  0  0  0  0  0  0  0  0  0
   21.0634   18.1534   14.8885 H   0  0  0  0  0  0  0  0  0  0  0  0
   19.4109   18.5000   14.3805 H   0  0  0  0  0  0  0  0  0  0  0  0
   19.7312   17.9767   16.0406 H   0  0  0  0  0  0  0  0  0  0  0  0
   25.0508   22.3817   15.0265 H   0  0  0  0  0  0  0  0  0  0  0  0
   23.6760   23.0158   13.0936 H   0  0  0  0  0  0  0  0  0  0  0  0
   24.5555   24.0730   16.9547 H   0  0  0  0  0  0  0  0  0  0  0  0
   23.8941   26.2954   16.2127 H   0  0  0  0  0  0  0  0  0  0  0  0
   22.7016   25.1765   15.9437 H   0  0  0  0  0  0  0  0  0  0  0  0
   23.6146   25.7325   14.6969 H   0  0  0  0  0  0  0  0  0  0  0  0
   26.7984   24.0990   15.8282 H   0  0  0  0  0  0  0  0  0  0  0  0
   26.1572   25.1080   14.5511 H   0  0  0  0  0  0  0  0  0  0  0  0
   25.4807   25.7014   18.2563 H   0  0  0  0  0  0  0  0  0  0  0  0
   26.2072   27.7652   19.3500 H   0  0  0  0  0  0  0  0  0  0  0  0
   27.6397   29.3739   18.1923 H   0  0  0  0  0  0  0  0  0  0  0  0
   28.3655   28.9239   15.8996 H   0  0  0  0  0  0  0  0  0  0  0  0
   27.7324   26.8444   14.7730 H   0  0  0  0  0  0  0  0  0  0  0  0
  1  2  2  0  0  0  0
  2  3  1  0  0  0  0
 12  2  1  0  0  0  0
  4  3  1  0  0  0  0
  3 23  1  0  0  0  0
  4  8  1  0  0  0  0
  4 24  1  0  0  0  0
  4  5  1  0  0  0  0
  5  6  2  0  0  0  0
  5  7  1  0  0  0  0
  7 25  1  0  0  0  0
  7 26  1  0  0  0  0
  8 27  1  0  0  0  0
  8 28  1  0  0  0  0
  8  9  1  0  0  0  0
  9 29  1  0  0  0  0
  9 11  1  0  0  0  0
  9 10  1  0  0  0  0
 10 30  1  0  0  0  0
 10 31  1  0  0  0  0
 10 32  1  0  0  0  0
 11 33  1  0  0  0  0
 11 34  1  0  0  0  0
 11 35  1  0  0  0  0
 12 36  1  0  0  0  0
 12 13  1  0  0  0  0
 12 14  1  0  0  0  0
 13 37  1  0  0  0  0
 14 38  1  0  0  0  0
 14 15  1  0  0  0  0
 14 16  1  0  0  0  0
 15 39  1  0  0  0  0
 15 40  1  0  0  0  0
 15 41  1  0  0  0  0
 16 42  1  0  0  0  0
 16 43  1  0  0  0  0
 16 17  1  0  0  0  0
 17 18  1  0  0  0  0
 17 22  2  0  0  0  0
 18 44  1  0  0  0  0
 18 19  2  0  0  0  0
 19 45  1  0  0  0  0
 19 20  1  0  0  0  0
 20 46  1  0  0  0  0
 20 21  2  0  0  0  0
 21 47  1  0  0  0  0
 21 22  1  0  0  0  0
 22 48  1  0  0  0  0
M  ZZC   1 o1
M  ZZC   2 c1
M  ZZC   3 n1
M  ZZC   4 c2
M  ZZC   5 c3
M  ZZC   6 o2
M  ZZC   7 n2
M  ZZC   8 c4
M  ZZC   9 c5
M  ZZC  10 c6
M  ZZC  11 c7
M  ZZC  12 c8
M  ZZC  13 o3
M  ZZC  14 c9
M  ZZC  15 n3
M  ZZC  16 c10
M  ZZC  17 c11
M  ZZC  18 c12
M  ZZC  19 c13
M  ZZC  20 c14
M  ZZC  21 c15
M  ZZC  22 c16
M  ZZC  23 h11
M  ZZC  24 h21
M  ZZC  25 h01
M  ZZC  26 h22
M  ZZC  27 h41
M  ZZC  28 h42
M  ZZC  29 h51
M  ZZC  30 h61
M  ZZC  31 h62
M  ZZC  32 h63
M  ZZC  33 h71
M  ZZC  34 h72
M  ZZC  35 h73
M  ZZC  36 h81
M  ZZC  37 h31
M  ZZC  38 h91
M  ZZC  39 h02
M  ZZC  40 h32
M  ZZC  41 h33
M  ZZC  42 h101
M  ZZC  43 h102
M  ZZC  44 h121
M  ZZC  45 h131
M  ZZC  46 h141
M  ZZC  47 h151
M  ZZC  48 h161
M  ZZM   1 7
M  ZZI   1 81
M  ZZM   2 3
M  ZZI   2 121
M  ZZM   3 10
M  ZZI   3 211
M  ZZM   4 1
M  ZZI   4 113
M  ZZM   5 3
M  ZZI   5 121
M  ZZM   6 7
M  ZZI   6 81
M  ZZM   7 10
M  ZZI   7 212
M  ZZM   8 1
M  ZZI   8 112
M  ZZM   9 1
M  ZZI   9 113
M  ZZM  10 1
M  ZZI  10 111
M  ZZM  11 1
M  ZZI  11 111
M  ZZM  12 1
M  ZZI  12 113
M  ZZM  13 6
M  ZZI  13 60
M  ZZM  14 1
M  ZZI  14 113
M  ZZM  15 34
M  ZZI  15 231
M  ZZM  16 1
M  ZZI  16 112
M  ZZM  17 37
M  ZZI  17 124
M  ZZM  18 37
M  ZZI  18 125
M  ZZM  19 37
M  ZZI  19 125
M  ZZM  20 37
M  ZZI  20 125
M  ZZM  21 37
M  ZZI  21 125
M  ZZM  22 37
M  ZZI  22 125
M  ZZM  23 28
M  ZZI  23 11
M  ZZM  24 5
M  ZZI  24 1
M  ZZM  25 28
M  ZZI  25 11
M  ZZM  26 28
M  ZZI  26 11
M  ZZM  27 5
M  ZZI  27 1
M  ZZM  28 5
M  ZZI  28 1
M  ZZM  29 5
M  ZZI  29 1
M  ZZM  30 5
M  ZZI  30 1
M  ZZM  31 5
M  ZZI  31 1
M  ZZM  32 5
M  ZZI  32 1
M  ZZM  33 5
M  ZZI  33 1
M  ZZM  34 5
M  ZZI  34 1
M  ZZM  35 5
M  ZZI  35 1
M  ZZM  36 5
M  ZZI  36 1
M  ZZM  37 21
M  ZZI  37 20
M  ZZM  38 5
M  ZZI  38 1
M  ZZM  39 36
M  ZZI  39 17
M  ZZM  40 36
M  ZZI  40 17
M  ZZM  41 36
M  ZZI  41 17
M  ZZM  42 5
M  ZZI  42 1
M  ZZM  43 5
M  ZZI  43 1
M  ZZM  44 5
M  ZZI  44 1
M  ZZM  45 5
M  ZZI  45 1
M  ZZM  46 5
M  ZZI  46 1
M  ZZM  47 5
M  ZZI  47 1
M  ZZM  48 5
M  ZZI  48 1
M  CHG  1  15   1
M  END
> <IX>
1

> <NAME>
IAPBIR2_5GMP_2.pdb

> <Score>
-11.820658

> <Natom>
48

> <Nflex>
9

> <Hbond>
-3.034769

> <Hphob>
-4.089821

> <VwInt>
-41.395308

> <Dsolv>
15.059477

> <SolEl>
29.466543

> <Eintl>
6.417118

> <RecConf>
ND

> <projPath>
IAPBIR2_maps/

> <NAME_>
IAPBIR2_5GMP_2.pdb

$$$$
