Mdm2_6KZD_1.pdb
  MOLSOFT 04032206423D

 77 81  0  0  1  0  0  0  0  0999 V2000
   23.8454   21.6087   44.1391 Cl  0  0  0  0  0  0  0  0  0  0  0  0
   22.6379   20.9232   43.1127 C   0  0  0  0  0  0  0  0  0  0  0  0
   22.7320   19.6009   42.7196 C   0  0  0  0  0  0  0  0  0  0  0  0
   21.7690   19.0577   41.8860 C   0  0  0  0  0  0  0  0  0  0  0  0
   20.7064   19.8324   41.4131 C   0  0  0  0  0  0  0  0  0  0  0  0
   19.6394   19.2788   40.4756 C   0  0  1  0  0  0  0  0  0  0  0  0
   20.1619   18.3491   39.5000 N   0  0  0  0  0  0  0  0  0  0  0  0
   20.2495   18.5835   38.1409 C   0  0  0  0  0  0  0  0  0  0  0  0
   19.3058   18.3053   37.4194 O   0  0  0  0  0  0  0  0  0  0  0  0
   21.4460   19.0857   37.6374 N   0  0  0  0  0  0  0  0  0  0  0  0
   22.4575   19.8269   38.3809 C   0  0  0  0  0  0  0  0  0  0  0  0
   23.1166   20.9649   37.5916 C   0  0  0  0  0  0  0  0  0  0  0  0
   23.9305   21.6866   38.1488 O   0  0  0  0  0  0  0  0  0  0  0  0
   22.7712   21.1269   36.2456 N   0  0  0  0  0  0  0  0  0  0  0  0
   23.2000   22.3191   35.5048 C   0  0  0  0  0  0  0  0  0  0  0  0
   24.1803   22.0186   34.3792 C   0  0  0  0  0  0  0  0  0  0  0  0
   24.1764   22.6384   33.3259 O   0  0  0  0  0  0  0  0  0  0  0  0
   25.1545   21.1058   34.6844 N   0  0  0  0  0  0  0  0  0  0  0  0
   21.8553   20.2294   35.5544 C   0  0  0  0  0  0  0  0  0  0  0  0
   21.7620   18.8841   36.2374 C   0  0  0  0  0  0  0  0  0  0  0  0
   19.7706   17.0852   39.9000 C   0  0  0  0  0  0  0  0  0  0  0  0
   20.1987   15.9099   39.0919 C   0  0  0  0  0  0  0  0  0  0  0  0
   19.2512   15.0549   38.5220 C   0  0  0  0  0  0  0  0  0  0  0  0
   17.8841   15.2486   38.7337 O   0  0  0  0  0  0  0  0  0  0  0  0
   17.3429   14.2741   39.6533 C   0  0  0  0  0  0  0  0  0  0  0  0
   16.8084   13.0461   38.9137 C   0  0  0  0  0  0  0  0  0  0  0  0
   16.1959   14.9464   40.3932 C   0  0  0  0  0  0  0  0  0  0  0  0
   19.6513   14.0997   37.5973 C   0  0  0  0  0  0  0  0  0  0  0  0
   21.0012   13.9528   37.2868 C   0  0  0  0  0  0  0  0  0  0  0  0
   21.5099   13.0361   36.3582 O   0  0  0  0  0  0  0  0  0  0  0  0
   20.5157   12.3118   35.6196 C   0  0  0  0  0  0  0  0  0  0  0  0
   21.9422   14.7570   37.9096 C   0  0  0  0  0  0  0  0  0  0  0  0
   21.5494   15.7421   38.8005 C   0  0  0  0  0  0  0  0  0  0  0  0
   19.0190   17.0113   40.9535 N   0  0  0  0  0  0  0  0  0  0  0  0
   18.5891   18.4098   41.1850 C   0  0  1  0  0  0  0  0  0  0  0  0
   18.2171   18.7545   42.6145 C   0  0  0  0  0  0  0  0  0  0  0  0
   17.5576   19.9523   42.8953 C   0  0  0  0  0  0  0  0  0  0  0  0
   17.1622   20.2652   44.1837 C   0  0  0  0  0  0  0  0  0  0  0  0
   17.4131   19.3761   45.2118 C   0  0  0  0  0  0  0  0  0  0  0  0
   16.8982   19.7502   46.8171 Cl  0  0  0  0  0  0  0  0  0  0  0  0
   18.0699   18.1854   44.9581 C   0  0  0  0  0  0  0  0  0  0  0  0
   18.4699   17.8785   43.6684 C   0  0  0  0  0  0  0  0  0  0  0  0
   20.6257   21.1573   41.8443 C   0  0  0  0  0  0  0  0  0  0  0  0
   21.5768   21.6984   42.6887 C   0  0  0  0  0  0  0  0  0  0  0  0
   23.5570   18.9833   43.0610 H   0  0  0  0  0  0  0  0  0  0  0  0
   21.8652   18.0148   41.6015 H   0  0  0  0  0  0  0  0  0  0  0  0
   19.1685   20.1107   39.9385 H   0  0  0  0  0  0  0  0  0  0  0  0
   22.0057   20.2735   39.2630 H   0  0  0  0  0  0  0  0  0  0  0  0
   23.2319   19.1186   38.6926 H   0  0  0  0  0  0  0  0  0  0  0  0
   22.3075   22.7950   35.0874 H   0  0  0  0  0  0  0  0  0  0  0  0
   23.6719   23.0314   36.1836 H   0  0  0  0  0  0  0  0  0  0  0  0
   25.8714   20.8883   34.0023 H   0  0  0  0  0  0  0  0  0  0  0  0
   25.1947   20.6431   35.5862 H   0  0  0  0  0  0  0  0  0  0  0  0
   20.8859   20.7293   35.5317 H   0  0  0  0  0  0  0  0  0  0  0  0
   22.1900   20.0954   34.5211 H   0  0  0  0  0  0  0  0  0  0  0  0
   22.7220   18.3582   36.1880 H   0  0  0  0  0  0  0  0  0  0  0  0
   21.0260   18.2431   35.7515 H   0  0  0  0  0  0  0  0  0  0  0  0
   18.1002   13.9722   40.3865 H   0  0  0  0  0  0  0  0  0  0  0  0
   16.1837   12.4253   39.5629 H   0  0  0  0  0  0  0  0  0  0  0  0
   17.6224   12.4124   38.5558 H   0  0  0  0  0  0  0  0  0  0  0  0
   16.2236   13.3330   38.0352 H   0  0  0  0  0  0  0  0  0  0  0  0
   16.5407   15.8349   40.9279 H   0  0  0  0  0  0  0  0  0  0  0  0
   15.7340   14.2647   41.1124 H   0  0  0  0  0  0  0  0  0  0  0  0
   15.4240   15.2827   39.6959 H   0  0  0  0  0  0  0  0  0  0  0  0
   18.8935   13.5100   37.0985 H   0  0  0  0  0  0  0  0  0  0  0  0
   19.9519   11.6400   36.2758 H   0  0  0  0  0  0  0  0  0  0  0  0
   21.0314   11.6960   34.8781 H   0  0  0  0  0  0  0  0  0  0  0  0
   19.8464   12.9892   35.0786 H   0  0  0  0  0  0  0  0  0  0  0  0
   22.9944   14.6372   37.6709 H   0  0  0  0  0  0  0  0  0  0  0  0
   22.3002   16.3924   39.2398 H   0  0  0  0  0  0  0  0  0  0  0  0
   17.6530   18.4966   40.6241 H   0  0  0  0  0  0  0  0  0  0  0  0
   17.3362   20.6568   42.0994 H   0  0  0  0  0  0  0  0  0  0  0  0
   16.6516   21.2029   44.3786 H   0  0  0  0  0  0  0  0  0  0  0  0
   18.2689   17.4841   45.7625 H   0  0  0  0  0  0  0  0  0  0  0  0
   18.9751   16.9340   43.4893 H   0  0  0  0  0  0  0  0  0  0  0  0
   19.8041   21.7912   41.5288 H   0  0  0  0  0  0  0  0  0  0  0  0
   21.4842   22.7303   43.0092 H   0  0  0  0  0  0  0  0  0  0  0  0
  2  1  1  0  0  0  0
  2  3  1  0  0  0  0
  2 44  2  0  0  0  0
  3 45  1  0  0  0  0
  3  4  2  0  0  0  0
  4 46  1  0  0  0  0
  4  5  1  0  0  0  0
  5 43  2  0  0  0  0
  6  5  1  0  0  0  0
  6 47  1  0  0  0  0
  6 35  1  0  0  0  0
  6  7  1  0  0  0  0
  7 21  1  0  0  0  0
  7  8  1  0  0  0  0
  8  9  2  0  0  0  0
  8 10  1  0  0  0  0
 10 20  1  0  0  0  0
 10 11  1  0  0  0  0
 11 12  1  0  0  0  0
 11 48  1  0  0  0  0
 11 49  1  0  0  0  0
 12 14  1  0  0  0  0
 12 13  2  0  0  0  0
 14 19  1  0  0  0  0
 14 15  1  0  0  0  0
 15 50  1  0  0  0  0
 15 51  1  0  0  0  0
 15 16  1  0  0  0  0
 16 17  2  0  0  0  0
 16 18  1  0  0  0  0
 18 52  1  0  0  0  0
 18 53  1  0  0  0  0
 19 20  1  0  0  0  0
 19 54  1  0  0  0  0
 19 55  1  0  0  0  0
 20 56  1  0  0  0  0
 20 57  1  0  0  0  0
 21 34  2  0  0  0  0
 21 22  1  0  0  0  0
 22 23  2  0  0  0  0
 22 33  1  0  0  0  0
 23 24  1  0  0  0  0
 23 28  1  0  0  0  0
 24 25  1  0  0  0  0
 25 58  1  0  0  0  0
 25 27  1  0  0  0  0
 25 26  1  0  0  0  0
 26 59  1  0  0  0  0
 26 60  1  0  0  0  0
 26 61  1  0  0  0  0
 27 62  1  0  0  0  0
 27 63  1  0  0  0  0
 27 64  1  0  0  0  0
 28 65  1  0  0  0  0
 28 29  2  0  0  0  0
 29 32  1  0  0  0  0
 29 30  1  0  0  0  0
 30 31  1  0  0  0  0
 31 66  1  0  0  0  0
 31 67  1  0  0  0  0
 31 68  1  0  0  0  0
 32 69  1  0  0  0  0
 32 33  2  0  0  0  0
 33 70  1  0  0  0  0
 35 34  1  0  0  0  0
 35 71  1  0  0  0  0
 35 36  1  0  0  0  0
 36 37  1  0  0  0  0
 36 42  2  0  0  0  0
 37 72  1  0  0  0  0
 37 38  2  0  0  0  0
 38 73  1  0  0  0  0
 38 39  1  0  0  0  0
 39 40  1  0  0  0  0
 39 41  2  0  0  0  0
 41 74  1  0  0  0  0
 41 42  1  0  0  0  0
 42 75  1  0  0  0  0
 43 76  1  0  0  0  0
 43 44  1  0  0  0  0
 44 77  1  0  0  0  0
M  ZZC   1 &Cl1
M  ZZC   2 c1
M  ZZC   3 c2
M  ZZC   4 c3
M  ZZC   5 c4
M  ZZC   6 c5
M  ZZC   7 n1
M  ZZC   8 c6
M  ZZC   9 o1
M  ZZC  10 n2
M  ZZC  11 c7
M  ZZC  12 c8
M  ZZC  13 o2
M  ZZC  14 n3
M  ZZC  15 c9
M  ZZC  16 c10
M  ZZC  17 o3
M  ZZC  18 n4
M  ZZC  19 c11
M  ZZC  20 c12
M  ZZC  21 c13
M  ZZC  22 c14
M  ZZC  23 c15
M  ZZC  24 o4
M  ZZC  25 c16
M  ZZC  26 c17
M  ZZC  27 c18
M  ZZC  28 c19
M  ZZC  29 c20
M  ZZC  30 o5
M  ZZC  31 c21
M  ZZC  32 c22
M  ZZC  33 c23
M  ZZC  34 n5
M  ZZC  35 c24
M  ZZC  36 c25
M  ZZC  37 c26
M  ZZC  38 c27
M  ZZC  39 c28
M  ZZC  40 &Cl2
M  ZZC  41 c29
M  ZZC  42 c30
M  ZZC  43 c31
M  ZZC  44 c32
M  ZZC  45 h21
M  ZZC  46 h31
M  ZZC  47 h51
M  ZZC  48 h71
M  ZZC  49 h72
M  ZZC  50 h91
M  ZZC  51 h92
M  ZZC  52 h41
M  ZZC  53 h42
M  ZZC  54 h111
M  ZZC  55 h112
M  ZZC  56 h121
M  ZZC  57 h122
M  ZZC  58 h161
M  ZZC  59 h171
M  ZZC  60 h172
M  ZZC  61 h173
M  ZZC  62 h181
M  ZZC  63 h182
M  ZZC  64 h183
M  ZZC  65 h191
M  ZZC  66 h211
M  ZZC  67 h212
M  ZZC  68 h213
M  ZZC  69 h221
M  ZZC  70 h231
M  ZZC  71 h241
M  ZZC  72 h261
M  ZZC  73 h271
M  ZZC  74 h291
M  ZZC  75 h301
M  ZZC  76 h311
M  ZZC  77 h321
M  ZZM   1 12
M  ZZI   1 92
M  ZZM   2 37
M  ZZI   2 124
M  ZZM   3 37
M  ZZI   3 125
M  ZZM   4 37
M  ZZI   4 125
M  ZZM   5 37
M  ZZI   5 124
M  ZZM   6 1
M  ZZI   6 113
M  ZZM   7 10
M  ZZI   7 192
M  ZZM   8 3
M  ZZI   8 121
M  ZZM   9 7
M  ZZI   9 81
M  ZZM  10 10
M  ZZI  10 192
M  ZZM  11 1
M  ZZI  11 112
M  ZZM  12 3
M  ZZI  12 121
M  ZZM  13 7
M  ZZI  13 81
M  ZZM  14 10
M  ZZI  14 192
M  ZZM  15 1
M  ZZI  15 112
M  ZZM  16 3
M  ZZI  16 121
M  ZZM  17 7
M  ZZI  17 81
M  ZZM  18 10
M  ZZI  18 212
M  ZZM  19 1
M  ZZI  19 112
M  ZZM  20 1
M  ZZI  20 112
M  ZZM  21 3
M  ZZI  21 121
M  ZZM  22 37
M  ZZI  22 124
M  ZZM  23 37
M  ZZI  23 124
M  ZZM  24 6
M  ZZI  24 59
M  ZZM  25 1
M  ZZI  25 113
M  ZZM  26 1
M  ZZI  26 111
M  ZZM  27 1
M  ZZI  27 111
M  ZZM  28 37
M  ZZI  28 125
M  ZZM  29 37
M  ZZI  29 124
M  ZZM  30 6
M  ZZI  30 59
M  ZZM  31 1
M  ZZI  31 111
M  ZZM  32 37
M  ZZI  32 125
M  ZZM  33 37
M  ZZI  33 125
M  ZZM  34 9
M  ZZI  34 220
M  ZZM  35 1
M  ZZI  35 113
M  ZZM  36 37
M  ZZI  36 124
M  ZZM  37 37
M  ZZI  37 125
M  ZZM  38 37
M  ZZI  38 125
M  ZZM  39 37
M  ZZI  39 124
M  ZZM  40 12
M  ZZI  40 92
M  ZZM  41 37
M  ZZI  41 125
M  ZZM  42 37
M  ZZI  42 125
M  ZZM  43 37
M  ZZI  43 125
M  ZZM  44 37
M  ZZI  44 125
M  ZZM  45 5
M  ZZI  45 1
M  ZZM  46 5
M  ZZI  46 1
M  ZZM  47 5
M  ZZI  47 1
M  ZZM  48 5
M  ZZI  48 1
M  ZZM  49 5
M  ZZI  49 1
M  ZZM  50 5
M  ZZI  50 1
M  ZZM  51 5
M  ZZI  51 1
M  ZZM  52 28
M  ZZI  52 11
M  ZZM  53 28
M  ZZI  53 11
M  ZZM  54 5
M  ZZI  54 1
M  ZZM  55 5
M  ZZI  55 1
M  ZZM  56 5
M  ZZI  56 1
M  ZZM  57 5
M  ZZI  57 1
M  ZZM  58 5
M  ZZI  58 1
M  ZZM  59 5
M  ZZI  59 1
M  ZZM  60 5
M  ZZI  60 1
M  ZZM  61 5
M  ZZI  61 1
M  ZZM  62 5
M  ZZI  62 1
M  ZZM  63 5
M  ZZI  63 1
M  ZZM  64 5
M  ZZI  64 1
M  ZZM  65 5
M  ZZI  65 1
M  ZZM  66 5
M  ZZI  66 1
M  ZZM  67 5
M  ZZI  67 1
M  ZZM  68 5
M  ZZI  68 1
M  ZZM  69 5
M  ZZI  69 1
M  ZZM  70 5
M  ZZI  70 1
M  ZZM  71 5
M  ZZI  71 1
M  ZZM  72 5
M  ZZI  72 1
M  ZZM  73 5
M  ZZI  73 1
M  ZZM  74 5
M  ZZI  74 1
M  ZZM  75 5
M  ZZI  75 1
M  ZZM  76 5
M  ZZI  76 1
M  ZZM  77 5
M  ZZI  77 1
M  END
> <IX>
1

> <NAME>
Mdm2_6KZD_1.pdb

> <Score>
-18.806866

> <Natom>
77

> <Nflex>
7

> <Hbond>
-4.37814

> <Hphob>
-7.189235

> <VwInt>
-29.536399

> <Dsolv>
10.752759

> <SolEl>
1.751214

> <Eintl>
22.004406

> <RecConf>
ND

> <projPath>
Mdm2_maps/

> <NAME_>
Mdm2_6KZD_1.pdb

$$$$
