Mdm2_5GMP_8.pdb
  MOLSOFT 04032206393D

 71 74  0  0  1  0  0  0  0  0999 V2000
   25.5007   15.5551   40.8679 Cl  0  0  0  0  0  0  0  0  0  0  0  0
   25.6104   17.1874   41.4277 C   0  0  0  0  0  0  0  0  0  0  0  0
   24.4879   18.0026   41.4346 C   0  0  0  0  0  0  0  0  0  0  0  0
   23.3237   17.4905   41.0037 F   0  0  0  0  0  0  0  0  0  0  0  0
   24.5466   19.3247   41.8892 C   0  0  0  0  0  0  0  0  0  0  0  0
   23.3548   20.2821   41.9295 C   0  0  1  0  0  0  0  0  0  0  0  0
   22.2055   20.0467   40.9428 C   0  0  2  0  0  0  0  0  0  0  0  0
   22.5941   20.3466   39.4874 C   0  0  0  0  0  0  0  0  0  0  0  0
   23.7565   20.4606   39.1190 O   0  0  0  0  0  0  0  0  0  0  0  0
   21.5615   20.4067   38.4250 N   0  5  0  0  0  0  0  0  0  0  0  0
   22.1100   20.5230   37.0570 C   0  0  0  0  0  0  0  0  0  0  0  0
   22.0984   19.4788   36.1072 C   0  0  0  0  0  0  0  0  0  0  0  0
   21.6459   18.1570   36.2657 O   0  0  0  0  0  0  0  0  0  0  0  0
   21.0634   17.8218   37.5294 C   0  0  0  0  0  0  0  0  0  0  0  0
   22.5794   19.7210   34.8260 C   0  0  0  0  0  0  0  0  0  0  0  0
   23.0690   20.9747   34.4590 C   0  0  0  0  0  0  0  0  0  0  0  0
   23.5660   21.2874   33.0809 C   0  0  0  0  0  0  0  0  0  0  0  0
   23.7738   22.4464   32.7542 O   0  0  0  0  0  0  0  0  0  0  0  0
   23.7617   20.2447   32.2132 N   0  0  0  0  0  0  0  0  0  0  0  0
   23.0762   21.9953   35.4010 C   0  0  0  0  0  0  0  0  0  0  0  0
   22.6057   21.7613   36.6775 C   0  0  0  0  0  0  0  0  0  0  0  0
   21.1716   20.9691   41.4477 N   0  0  0  0  0  0  0  0  0  0  0  0
   21.2670   21.0450   42.9167 C   0  0  1  0  0  0  0  0  0  0  0  0
   20.0400   20.5143   43.7095 C   0  0  0  0  0  0  0  0  0  0  0  0
   18.6563   21.2121   43.5832 C   0  0  0  0  0  0  0  0  0  0  0  0
   18.7722   22.7350   43.4837 C   0  0  0  0  0  0  0  0  0  0  0  0
   17.8664   20.6782   42.3819 C   0  0  0  0  0  0  0  0  0  0  0  0
   17.8372   20.8840   44.8420 C   0  0  0  0  0  0  0  0  0  0  0  0
   22.6167   20.3579   43.2889 C   0  0  1  0  0  0  0  0  0  0  0  0
   22.3742   18.9679   43.7448 C   0  0  0  0  0  0  0  0  0  0  0  0
   22.1688   17.8823   44.1035 N   0  0  0  0  0  0  0  0  0  0  0  0
   23.3521   21.1645   44.3737 C   0  0  0  0  0  0  0  0  0  0  0  0
   23.8960   22.4300   44.1265 C   0  0  0  0  0  0  0  0  0  0  0  0
   23.7844   22.9806   42.9110 F   0  0  0  0  0  0  0  0  0  0  0  0
   24.5432   23.1705   45.0959 C   0  0  0  0  0  0  0  0  0  0  0  0
   24.6482   22.6708   46.3756 C   0  0  0  0  0  0  0  0  0  0  0  0
   25.4169   23.6058   47.6063 Cl  0  0  0  0  0  0  0  0  0  0  0  0
   24.1169   21.4307   46.6715 C   0  0  0  0  0  0  0  0  0  0  0  0
   23.4792   20.6912   45.6875 C   0  0  0  0  0  0  0  0  0  0  0  0
   25.7905   19.7860   42.3237 C   0  0  0  0  0  0  0  0  0  0  0  0
   26.9119   18.9741   42.3187 C   0  0  0  0  0  0  0  0  0  0  0  0
   26.8281   17.6695   41.8725 C   0  0  0  0  0  0  0  0  0  0  0  0
   23.7703   21.2593   41.6629 H   0  0  0  0  0  0  0  0  0  0  0  0
   21.8114   19.0267   40.9802 H   0  0  0  0  0  0  0  0  0  0  0  0
   21.8122   17.8493   38.3263 H   0  0  0  0  0  0  0  0  0  0  0  0
   20.7096   16.7901   37.4632 H   0  0  0  0  0  0  0  0  0  0  0  0
   20.1916   18.4457   37.7492 H   0  0  0  0  0  0  0  0  0  0  0  0
   22.5305   18.9054   34.1145 H   0  0  0  0  0  0  0  0  0  0  0  0
   24.0911   20.4510   31.2775 H   0  0  0  0  0  0  0  0  0  0  0  0
   23.6270   19.2690   32.4453 H   0  0  0  0  0  0  0  0  0  0  0  0
   23.4510   22.9835   35.1594 H   0  0  0  0  0  0  0  0  0  0  0  0
   22.6344   22.5627   37.4036 H   0  0  0  0  0  0  0  0  0  0  0  0
   20.2501   20.7355   41.0795 H   0  0  0  0  0  0  0  0  0  0  0  0
   21.3473   22.1134   43.1369 H   0  0  0  0  0  0  0  0  0  0  0  0
   19.8918   19.4531   43.4842 H   0  0  0  0  0  0  0  0  0  0  0  0
   20.3210   20.5486   44.7681 H   0  0  0  0  0  0  0  0  0  0  0  0
   17.7856   23.2063   43.4827 H   0  0  0  0  0  0  0  0  0  0  0  0
   19.2817   23.0521   42.5695 H   0  0  0  0  0  0  0  0  0  0  0  0
   19.3186   23.1383   44.3383 H   0  0  0  0  0  0  0  0  0  0  0  0
   18.3082   20.9787   41.4335 H   0  0  0  0  0  0  0  0  0  0  0  0
   16.8394   21.0543   42.3864 H   0  0  0  0  0  0  0  0  0  0  0  0
   17.8072   19.5853   42.3912 H   0  0  0  0  0  0  0  0  0  0  0  0
   16.8380   21.3294   44.7984 H   0  0  0  0  0  0  0  0  0  0  0  0
   18.3213   21.2620   45.7485 H   0  0  0  0  0  0  0  0  0  0  0  0
   17.7133   19.8035   44.9697 H   0  0  0  0  0  0  0  0  0  0  0  0
   24.9494   24.1435   44.8447 H   0  0  0  0  0  0  0  0  0  0  0  0
   24.1881   21.0314   47.6789 H   0  0  0  0  0  0  0  0  0  0  0  0
   23.0710   19.7312   45.9876 H   0  0  0  0  0  0  0  0  0  0  0  0
   25.9039   20.8094   42.6677 H   0  0  0  0  0  0  0  0  0  0  0  0
   27.8641   19.3663   42.6635 H   0  0  0  0  0  0  0  0  0  0  0  0
   27.7125   17.0391   41.8711 H   0  0  0  0  0  0  0  0  0  0  0  0
  2  1  1  0  0  0  0
  2  3  2  0  0  0  0
  2 42  1  0  0  0  0
  3  4  1  0  0  0  0
  3  5  1  0  0  0  0
  5 40  2  0  0  0  0
  6  5  1  0  0  0  0
  6 43  1  0  0  0  0
  6 29  1  0  0  0  0
  6  7  1  0  0  0  0
  7 22  1  0  0  0  0
  7 44  1  0  0  0  0
  7  8  1  0  0  0  0
  8  9  2  0  0  0  0
  8 10  1  0  0  0  0
 10 11  1  0  0  0  0
 11 21  1  0  0  0  0
 11 12  2  0  0  0  0
 12 15  1  0  0  0  0
 12 13  1  0  0  0  0
 13 14  1  0  0  0  0
 14 45  1  0  0  0  0
 14 46  1  0  0  0  0
 14 47  1  0  0  0  0
 15 16  2  0  0  0  0
 15 48  1  0  0  0  0
 16 20  1  0  0  0  0
 16 17  1  0  0  0  0
 17 18  2  0  0  0  0
 17 19  1  0  0  0  0
 19 49  1  0  0  0  0
 19 50  1  0  0  0  0
 20 21  2  0  0  0  0
 20 51  1  0  0  0  0
 21 52  1  0  0  0  0
 23 22  1  0  0  0  0
 22 53  1  0  0  0  0
 23 29  1  0  0  0  0
 23 54  1  0  0  0  0
 23 24  1  0  0  0  0
 24 55  1  0  0  0  0
 24 56  1  0  0  0  0
 24 25  1  0  0  0  0
 25 26  1  0  0  0  0
 25 27  1  0  0  0  0
 25 28  1  0  0  0  0
 26 57  1  0  0  0  0
 26 58  1  0  0  0  0
 26 59  1  0  0  0  0
 27 60  1  0  0  0  0
 27 61  1  0  0  0  0
 27 62  1  0  0  0  0
 28 63  1  0  0  0  0
 28 64  1  0  0  0  0
 28 65  1  0  0  0  0
 29 30  1  0  0  0  0
 29 32  1  0  0  0  0
 30 31  3  0  0  0  0
 32 33  1  0  0  0  0
 32 39  2  0  0  0  0
 33 34  1  0  0  0  0
 33 35  2  0  0  0  0
 35 66  1  0  0  0  0
 35 36  1  0  0  0  0
 36 37  1  0  0  0  0
 36 38  2  0  0  0  0
 38 67  1  0  0  0  0
 38 39  1  0  0  0  0
 39 68  1  0  0  0  0
 40 69  1  0  0  0  0
 40 41  1  0  0  0  0
 41 70  1  0  0  0  0
 41 42  2  0  0  0  0
 42 71  1  0  0  0  0
M  ZZC   1 &Cl1
M  ZZC   2 c1
M  ZZC   3 c2
M  ZZC   4 f1
M  ZZC   5 c3
M  ZZC   6 c4
M  ZZC   7 c5
M  ZZC   8 c6
M  ZZC   9 o1
M  ZZC  10 n1
M  ZZC  11 c7
M  ZZC  12 c8
M  ZZC  13 o2
M  ZZC  14 c9
M  ZZC  15 c10
M  ZZC  16 c11
M  ZZC  17 c12
M  ZZC  18 o3
M  ZZC  19 n2
M  ZZC  20 c13
M  ZZC  21 c14
M  ZZC  22 n3
M  ZZC  23 c15
M  ZZC  24 c16
M  ZZC  25 c17
M  ZZC  26 c18
M  ZZC  27 c19
M  ZZC  28 c20
M  ZZC  29 c21
M  ZZC  30 c22
M  ZZC  31 n4
M  ZZC  32 c23
M  ZZC  33 c24
M  ZZC  34 f2
M  ZZC  35 c25
M  ZZC  36 c26
M  ZZC  37 &Cl2
M  ZZC  38 c27
M  ZZC  39 c28
M  ZZC  40 c29
M  ZZC  41 c30
M  ZZC  42 c31
M  ZZC  43 h41
M  ZZC  44 h51
M  ZZC  45 h91
M  ZZC  46 h92
M  ZZC  47 h93
M  ZZC  48 h101
M  ZZC  49 h21
M  ZZC  50 h22
M  ZZC  51 h131
M  ZZC  52 h141
M  ZZC  53 h31
M  ZZC  54 h151
M  ZZC  55 h161
M  ZZC  56 h162
M  ZZC  57 h181
M  ZZC  58 h182
M  ZZC  59 h183
M  ZZC  60 h191
M  ZZC  61 h192
M  ZZC  62 h193
M  ZZC  63 h201
M  ZZC  64 h202
M  ZZC  65 h203
M  ZZC  66 h251
M  ZZC  67 h271
M  ZZC  68 h281
M  ZZC  69 h291
M  ZZC  70 h301
M  ZZC  71 h311
M  ZZM   1 12
M  ZZI   1 92
M  ZZM   2 37
M  ZZI   2 124
M  ZZM   3 37
M  ZZI   3 124
M  ZZM   4 11
M  ZZI   4 90
M  ZZM   5 37
M  ZZI   5 124
M  ZZM   6 1
M  ZZI   6 113
M  ZZM   7 1
M  ZZI   7 113
M  ZZM   8 3
M  ZZI   8 122
M  ZZM   9 7
M  ZZI   9 80
M  ZZM  10 76
M  ZZI  10 239
M  ZZM  11 37
M  ZZI  11 124
M  ZZM  12 37
M  ZZI  12 124
M  ZZM  13 6
M  ZZI  13 59
M  ZZM  14 1
M  ZZI  14 111
M  ZZM  15 37
M  ZZI  15 125
M  ZZM  16 37
M  ZZI  16 124
M  ZZM  17 3
M  ZZI  17 121
M  ZZM  18 7
M  ZZI  18 81
M  ZZM  19 10
M  ZZI  19 212
M  ZZM  20 37
M  ZZI  20 125
M  ZZM  21 37
M  ZZI  21 125
M  ZZM  22 8
M  ZZI  22 214
M  ZZM  23 1
M  ZZI  23 113
M  ZZM  24 1
M  ZZI  24 112
M  ZZM  25 1
M  ZZI  25 110
M  ZZM  26 1
M  ZZI  26 111
M  ZZM  27 1
M  ZZI  27 111
M  ZZM  28 1
M  ZZI  28 111
M  ZZM  29 1
M  ZZI  29 110
M  ZZM  30 4
M  ZZI  30 130
M  ZZM  31 42
M  ZZI  31 225
M  ZZM  32 37
M  ZZI  32 124
M  ZZM  33 37
M  ZZI  33 124
M  ZZM  34 11
M  ZZI  34 90
M  ZZM  35 37
M  ZZI  35 125
M  ZZM  36 37
M  ZZI  36 124
M  ZZM  37 12
M  ZZI  37 92
M  ZZM  38 37
M  ZZI  38 125
M  ZZM  39 37
M  ZZI  39 125
M  ZZM  40 37
M  ZZI  40 125
M  ZZM  41 37
M  ZZI  41 125
M  ZZM  42 37
M  ZZI  42 125
M  ZZM  43 5
M  ZZI  43 1
M  ZZM  44 5
M  ZZI  44 1
M  ZZM  45 5
M  ZZI  45 1
M  ZZM  46 5
M  ZZI  46 1
M  ZZM  47 5
M  ZZI  47 1
M  ZZM  48 5
M  ZZI  48 1
M  ZZM  49 28
M  ZZI  49 11
M  ZZM  50 28
M  ZZI  50 11
M  ZZM  51 5
M  ZZI  51 1
M  ZZM  52 5
M  ZZI  52 1
M  ZZM  53 23
M  ZZI  53 10
M  ZZM  54 5
M  ZZI  54 1
M  ZZM  55 5
M  ZZI  55 1
M  ZZM  56 5
M  ZZI  56 1
M  ZZM  57 5
M  ZZI  57 1
M  ZZM  58 5
M  ZZI  58 1
M  ZZM  59 5
M  ZZI  59 1
M  ZZM  60 5
M  ZZI  60 1
M  ZZM  61 5
M  ZZI  61 1
M  ZZM  62 5
M  ZZI  62 1
M  ZZM  63 5
M  ZZI  63 1
M  ZZM  64 5
M  ZZI  64 1
M  ZZM  65 5
M  ZZI  65 1
M  ZZM  66 5
M  ZZI  66 1
M  ZZM  67 5
M  ZZI  67 1
M  ZZM  68 5
M  ZZI  68 1
M  ZZM  69 5
M  ZZI  69 1
M  ZZM  70 5
M  ZZI  70 1
M  ZZM  71 5
M  ZZI  71 1
M  CHG  1  10  -1
M  END
> <IX>
1

> <NAME>
Mdm2_5GMP_8.pdb

> <Score>
-13.460597

> <Natom>
71

> <Nflex>
5

> <Hbond>
-2.716042

> <Hphob>
-5.133927

> <VwInt>
-28.877555

> <Dsolv>
13.034734

> <SolEl>
12.111509

> <Eintl>
8.264379

> <RecConf>
ND

> <projPath>
Mdm2_maps/

> <NAME_>
Mdm2_5GMP_8.pdb

$$$$
