Ubr1_3K6P_2.pdb
  MOLSOFT 04032206323D

 22 22  0  0  1  0  0  0  0  0999 V2000
    2.2332   -5.9717   36.9347 N   0  0  0  0  0  0  0  0  0  0  0  0
    3.2486   -5.1116   36.5966 C   0  0  0  0  0  0  0  0  0  0  0  0
    3.3868   -4.0267   37.1395 O   0  0  0  0  0  0  0  0  0  0  0  0
    4.1966   -5.5984   35.5020 C   0  0  1  0  0  0  0  0  0  0  0  0
    4.8860   -4.4221   34.8430 N   0  3  0  0  0  0  0  0  0  0  0  0
    5.2360   -6.5467   36.1297 C   0  0  0  0  0  0  0  0  0  0  0  0
    6.0578   -7.2878   35.1316 C   0  0  0  0  0  0  0  0  0  0  0  0
    5.9077   -8.6212   34.8694 N   0  0  0  0  0  0  0  0  0  0  0  0
    6.8316   -8.9679   33.9289 C   0  0  0  0  0  0  0  0  0  0  0  0
    7.5470   -7.9327   33.5478 N   0  0  0  0  0  0  0  0  0  0  0  0
    7.1068   -6.9003   34.3286 C   0  0  0  0  0  0  0  0  0  0  0  0
    1.5773   -5.6950   37.6580 H   0  0  0  0  0  0  0  0  0  0  0  0
    2.0658   -6.8747   36.4994 H   0  0  0  0  0  0  0  0  0  0  0  0
    3.6187   -6.0912   34.7117 H   0  0  0  0  0  0  0  0  0  0  0  0
    5.5023   -3.9280   35.5024 H   0  0  0  0  0  0  0  0  0  0  0  0
    4.2062   -3.7251   34.5094 H   0  0  0  0  0  0  0  0  0  0  0  0
    5.4532   -4.7000   34.0301 H   0  0  0  0  0  0  0  0  0  0  0  0
    5.9024   -5.9826   36.7922 H   0  0  0  0  0  0  0  0  0  0  0  0
    4.7300   -7.2707   36.7772 H   0  0  0  0  0  0  0  0  0  0  0  0
    5.2428   -9.2560   35.2957 H   0  0  0  0  0  0  0  0  0  0  0  0
    6.9264   -9.9814   33.5641 H   0  0  0  0  0  0  0  0  0  0  0  0
    7.5561   -5.9196   34.2624 H   0  0  0  0  0  0  0  0  0  0  0  0
  1  2  1  0  0  0  0
  1 12  1  0  0  0  0
  1 13  1  0  0  0  0
  4  2  1  0  0  0  0
  2  3  2  0  0  0  0
  4  5  1  0  0  0  0
  4 14  1  0  0  0  0
  4  6  1  0  0  0  0
  5 15  1  0  0  0  0
  5 16  1  0  0  0  0
  5 17  1  0  0  0  0
  6 18  1  0  0  0  0
  6 19  1  0  0  0  0
  6  7  1  0  0  0  0
  7 11  2  0  0  0  0
  7  8  1  0  0  0  0
  8  9  1  0  0  0  0
  8 20  1  0  0  0  0
  9 10  2  0  0  0  0
  9 21  1  0  0  0  0
 10 11  1  0  0  0  0
 11 22  1  0  0  0  0
M  ZZC   1 n1
M  ZZC   2 c1
M  ZZC   3 o1
M  ZZC   4 c2
M  ZZC   5 n2
M  ZZC   6 c3
M  ZZC   7 c4
M  ZZC   8 n3
M  ZZC   9 c5
M  ZZC  10 n4
M  ZZC  11 c6
M  ZZC  12 h11
M  ZZC  13 h12
M  ZZC  14 h21
M  ZZC  15 h01
M  ZZC  16 h22
M  ZZC  17 h23
M  ZZC  18 h31
M  ZZC  19 h32
M  ZZC  20 h02
M  ZZC  21 h51
M  ZZC  22 h61
M  ZZM   1 10
M  ZZI   1 212
M  ZZM   2 3
M  ZZI   2 121
M  ZZM   3 7
M  ZZI   3 81
M  ZZM   4 1
M  ZZI   4 113
M  ZZM   5 34
M  ZZI   5 231
M  ZZM   6 1
M  ZZI   6 112
M  ZZM   7 63
M  ZZI   7 104
M  ZZM   8 39
M  ZZI   8 215
M  ZZM   9 63
M  ZZI   9 104
M  ZZM  10 66
M  ZZI  10 222
M  ZZM  11 64
M  ZZI  11 105
M  ZZM  12 28
M  ZZI  12 11
M  ZZM  13 28
M  ZZI  13 11
M  ZZM  14 5
M  ZZI  14 1
M  ZZM  15 36
M  ZZI  15 17
M  ZZM  16 36
M  ZZI  16 17
M  ZZM  17 36
M  ZZI  17 17
M  ZZM  18 5
M  ZZI  18 1
M  ZZM  19 5
M  ZZI  19 1
M  ZZM  20 23
M  ZZI  20 10
M  ZZM  21 5
M  ZZI  21 1
M  ZZM  22 5
M  ZZI  22 1
M  CHG  1   5   1
M  END
> <IX>
1

> <NAME>
Ubr1_3K6P_2.pdb

> <Score>
-9.550458

> <Natom>
22

> <Nflex>
3

> <Hbond>
-3.957839

> <Hphob>
-2.221908

> <VwInt>
-12.768013

> <Dsolv>
11.114262

> <SolEl>
6.945259

> <Eintl>
0.

> <RecConf>
ND

> <projPath>
Ubr1_maps/

> <NAME_>
Ubr1_3K6P_2.pdb

$$$$
