VHL_4QNQ_25.pdb
  MOLSOFT 04032206403D

 68 70  0  0  1  0  0  0  0  0999 V2000
   18.4183   -7.0492   -5.3787 C   0  0  0  0  0  0  0  0  0  0  0  0
   17.2385   -6.1178   -5.3457 C   0  0  0  0  0  0  0  0  0  0  0  0
   16.1438   -6.4794   -5.7470 O   0  0  0  0  0  0  0  0  0  0  0  0
   17.5247   -4.8775   -4.8077 N   0  0  0  0  0  0  0  0  0  0  0  0
   16.5467   -3.7908   -4.7053 C   0  0  1  0  0  0  0  0  0  0  0  0
   15.8930   -3.6770   -3.2876 C   0  0  0  0  0  0  0  0  0  0  0  0
   15.4541   -5.0541   -2.7685 C   0  0  0  0  0  0  0  0  0  0  0  0
   14.6341   -2.7975   -3.3461 C   0  0  0  0  0  0  0  0  0  0  0  0
   16.8539   -3.0737   -2.2506 C   0  0  0  0  0  0  0  0  0  0  0  0
   17.2472   -2.4915   -5.1431 C   0  0  0  0  0  0  0  0  0  0  0  0
   18.3927   -2.2421   -4.7964 O   0  0  0  0  0  0  0  0  0  0  0  0
   16.5113   -1.5564   -5.8714 N   0  0  0  0  0  0  0  0  0  0  0  0
   17.0421   -0.2209   -6.1116 C   0  0  2  0  0  0  0  0  0  0  0  0
   17.0823    0.6326   -4.8475 C   0  0  0  0  0  0  0  0  0  0  0  0
   16.2948    0.4976   -3.9206 O   0  0  0  0  0  0  0  0  0  0  0  0
   18.0236    1.6421   -4.9211 N   0  0  0  0  0  0  0  0  0  0  0  0
   17.9829    2.7857   -4.0290 C   0  0  1  0  0  0  0  0  0  0  0  0
   19.3954    3.2758   -3.7148 C   0  0  0  0  0  0  0  0  0  0  0  0
   17.0882    3.8355   -4.6581 C   0  0  0  0  0  0  0  0  0  0  0  0
   15.7502    3.9235   -4.2798 C   0  0  0  0  0  0  0  0  0  0  0  0
   14.8748    4.7728   -4.9333 C   0  0  0  0  0  0  0  0  0  0  0  0
   15.3082    5.5639   -5.9912 C   0  0  0  0  0  0  0  0  0  0  0  0
   14.3736    6.4072   -6.7265 C   0  0  0  0  0  0  0  0  0  0  0  0
   13.3975    7.2982   -6.2921 C   0  0  0  0  0  0  0  0  0  0  0  0
   13.0437    7.6435   -4.8950 C   0  0  0  0  0  0  0  0  0  0  0  0
   12.6906    7.9228   -7.2993 N   0  0  0  0  0  0  0  0  0  0  0  0
   13.1048    7.4820   -8.4644 C   0  0  0  0  0  0  0  0  0  0  0  0
   14.3609    6.3372   -8.4462 S   0  0  0  0  0  0  0  0  0  0  0  0
   16.6510    5.5014   -6.3524 C   0  0  0  0  0  0  0  0  0  0  0  0
   17.5241    4.6486   -5.7024 C   0  0  0  0  0  0  0  0  0  0  0  0
   16.0831    0.4277   -7.1063 C   0  0  0  0  0  0  0  0  0  0  0  0
   15.4255   -0.7474   -7.7998 C   0  0  1  0  0  0  0  0  0  0  0  0
   16.2198   -1.1704   -8.9171 O   0  0  0  0  0  0  0  0  0  0  0  0
   15.3739   -1.8269   -6.7266 C   0  0  0  0  0  0  0  0  0  0  0  0
   19.3630   -6.5079   -5.2727 H   0  0  0  0  0  0  0  0  0  0  0  0
   18.4315   -7.5754   -6.3365 H   0  0  0  0  0  0  0  0  0  0  0  0
   18.3189   -7.7746   -4.5682 H   0  0  0  0  0  0  0  0  0  0  0  0
   18.4675   -4.6972   -4.4838 H   0  0  0  0  0  0  0  0  0  0  0  0
   15.7809   -4.0238   -5.4324 H   0  0  0  0  0  0  0  0  0  0  0  0
   14.9520   -4.9779   -1.7990 H   0  0  0  0  0  0  0  0  0  0  0  0
   16.2998   -5.7334   -2.6331 H   0  0  0  0  0  0  0  0  0  0  0  0
   14.7505   -5.5260   -3.4550 H   0  0  0  0  0  0  0  0  0  0  0  0
   14.8769   -1.7690   -3.6321 H   0  0  0  0  0  0  0  0  0  0  0  0
   14.1329   -2.7520   -2.3744 H   0  0  0  0  0  0  0  0  0  0  0  0
   13.9091   -3.1631   -4.0763 H   0  0  0  0  0  0  0  0  0  0  0  0
   16.4196   -3.0928   -1.2456 H   0  0  0  0  0  0  0  0  0  0  0  0
   17.0948   -2.0294   -2.4697 H   0  0  0  0  0  0  0  0  0  0  0  0
   17.7942   -3.6261   -2.2061 H   0  0  0  0  0  0  0  0  0  0  0  0
   18.0496   -0.3144   -6.5221 H   0  0  0  0  0  0  0  0  0  0  0  0
   18.6415    1.6899   -5.7241 H   0  0  0  0  0  0  0  0  0  0  0  0
   17.5348    2.4666   -3.0813 H   0  0  0  0  0  0  0  0  0  0  0  0
   19.9560    2.5025   -3.1805 H   0  0  0  0  0  0  0  0  0  0  0  0
   19.3747    4.1718   -3.0866 H   0  0  0  0  0  0  0  0  0  0  0  0
   19.9660    3.5098   -4.6190 H   0  0  0  0  0  0  0  0  0  0  0  0
   15.3642    3.2899   -3.4859 H   0  0  0  0  0  0  0  0  0  0  0  0
   13.8315    4.7796   -4.6310 H   0  0  0  0  0  0  0  0  0  0  0  0
   12.2906    6.9509   -4.5074 H   0  0  0  0  0  0  0  0  0  0  0  0
   12.6286    8.6530   -4.8397 H   0  0  0  0  0  0  0  0  0  0  0  0
   13.9165    7.6141   -4.2369 H   0  0  0  0  0  0  0  0  0  0  0  0
   12.6805    7.8153   -9.3955 H   0  0  0  0  0  0  0  0  0  0  0  0
   17.0348    6.1114   -7.1652 H   0  0  0  0  0  0  0  0  0  0  0  0
   18.5512    4.6033   -6.0501 H   0  0  0  0  0  0  0  0  0  0  0  0
   15.3224    1.0222   -6.5868 H   0  0  0  0  0  0  0  0  0  0  0  0
   16.6109    1.0913   -7.7995 H   0  0  0  0  0  0  0  0  0  0  0  0
   14.4306   -0.4966   -8.1704 H   0  0  0  0  0  0  0  0  0  0  0  0
   17.1563   -1.0893   -8.6576 H   0  0  0  0  0  0  0  0  0  0  0  0
   15.4442   -2.8309   -7.1517 H   0  0  0  0  0  0  0  0  0  0  0  0
   14.4706   -1.7368   -6.1156 H   0  0  0  0  0  0  0  0  0  0  0  0
  1 35  1  0  0  0  0
  1 36  1  0  0  0  0
  1 37  1  0  0  0  0
  1  2  1  0  0  0  0
  2  3  2  0  0  0  0
  2  4  1  0  0  0  0
  4 38  1  0  0  0  0
  5  4  1  0  0  0  0
  5 39  1  0  0  0  0
  5  6  1  0  0  0  0
  5 10  1  0  0  0  0
  6  7  1  0  0  0  0
  6  8  1  0  0  0  0
  6  9  1  0  0  0  0
  7 40  1  0  0  0  0
  7 41  1  0  0  0  0
  7 42  1  0  0  0  0
  8 43  1  0  0  0  0
  8 44  1  0  0  0  0
  8 45  1  0  0  0  0
  9 46  1  0  0  0  0
  9 47  1  0  0  0  0
  9 48  1  0  0  0  0
 10 11  2  0  0  0  0
 10 12  1  0  0  0  0
 12 34  1  0  0  0  0
 13 12  1  0  0  0  0
 13 31  1  0  0  0  0
 13 49  1  0  0  0  0
 13 14  1  0  0  0  0
 14 15  2  0  0  0  0
 14 16  1  0  0  0  0
 16 50  1  0  0  0  0
 17 16  1  0  0  0  0
 17 51  1  0  0  0  0
 17 18  1  0  0  0  0
 17 19  1  0  0  0  0
 18 52  1  0  0  0  0
 18 53  1  0  0  0  0
 18 54  1  0  0  0  0
 19 20  1  0  0  0  0
 19 30  2  0  0  0  0
 20 55  1  0  0  0  0
 20 21  2  0  0  0  0
 21 56  1  0  0  0  0
 21 22  1  0  0  0  0
 22 29  2  0  0  0  0
 22 23  1  0  0  0  0
 23 24  2  0  0  0  0
 23 28  1  0  0  0  0
 24 25  1  0  0  0  0
 24 26  1  0  0  0  0
 25 57  1  0  0  0  0
 25 58  1  0  0  0  0
 25 59  1  0  0  0  0
 26 27  2  0  0  0  0
 27 60  1  0  0  0  0
 27 28  1  0  0  0  0
 29 61  1  0  0  0  0
 29 30  1  0  0  0  0
 30 62  1  0  0  0  0
 32 31  1  0  0  0  0
 31 63  1  0  0  0  0
 31 64  1  0  0  0  0
 32 34  1  0  0  0  0
 32 65  1  0  0  0  0
 32 33  1  0  0  0  0
 33 66  1  0  0  0  0
 34 67  1  0  0  0  0
 34 68  1  0  0  0  0
M  ZZC   1 c1
M  ZZC   2 c2
M  ZZC   3 o1
M  ZZC   4 n1
M  ZZC   5 c3
M  ZZC   6 c4
M  ZZC   7 c5
M  ZZC   8 c6
M  ZZC   9 c7
M  ZZC  10 c8
M  ZZC  11 o2
M  ZZC  12 n2
M  ZZC  13 c9
M  ZZC  14 c10
M  ZZC  15 o3
M  ZZC  16 n3
M  ZZC  17 c11
M  ZZC  18 c12
M  ZZC  19 c13
M  ZZC  20 c14
M  ZZC  21 c15
M  ZZC  22 c16
M  ZZC  23 c17
M  ZZC  24 c18
M  ZZC  25 c19
M  ZZC  26 n4
M  ZZC  27 c20
M  ZZC  28 s1
M  ZZC  29 c21
M  ZZC  30 c22
M  ZZC  31 c23
M  ZZC  32 c24
M  ZZC  33 o4
M  ZZC  34 c25
M  ZZC  35 h11
M  ZZC  36 h12
M  ZZC  37 h13
M  ZZC  38 h01
M  ZZC  39 h31
M  ZZC  40 h51
M  ZZC  41 h52
M  ZZC  42 h53
M  ZZC  43 h61
M  ZZC  44 h62
M  ZZC  45 h63
M  ZZC  46 h71
M  ZZC  47 h72
M  ZZC  48 h73
M  ZZC  49 h91
M  ZZC  50 h02
M  ZZC  51 h111
M  ZZC  52 h121
M  ZZC  53 h122
M  ZZC  54 h123
M  ZZC  55 h141
M  ZZC  56 h151
M  ZZC  57 h191
M  ZZC  58 h192
M  ZZC  59 h193
M  ZZC  60 h201
M  ZZC  61 h211
M  ZZC  62 h221
M  ZZC  63 h231
M  ZZC  64 h232
M  ZZC  65 h241
M  ZZC  66 h41
M  ZZC  67 h251
M  ZZC  68 h252
M  ZZM   1 1
M  ZZI   1 111
M  ZZM   2 3
M  ZZI   2 121
M  ZZM   3 7
M  ZZI   3 81
M  ZZM   4 10
M  ZZI   4 211
M  ZZM   5 1
M  ZZI   5 113
M  ZZM   6 1
M  ZZI   6 110
M  ZZM   7 1
M  ZZI   7 111
M  ZZM   8 1
M  ZZI   8 111
M  ZZM   9 1
M  ZZI   9 111
M  ZZM  10 3
M  ZZI  10 121
M  ZZM  11 7
M  ZZI  11 81
M  ZZM  12 10
M  ZZI  12 192
M  ZZM  13 1
M  ZZI  13 113
M  ZZM  14 3
M  ZZI  14 121
M  ZZM  15 7
M  ZZI  15 81
M  ZZM  16 10
M  ZZI  16 211
M  ZZM  17 1
M  ZZI  17 113
M  ZZM  18 1
M  ZZI  18 111
M  ZZM  19 37
M  ZZI  19 124
M  ZZM  20 37
M  ZZI  20 125
M  ZZM  21 37
M  ZZI  21 125
M  ZZM  22 37
M  ZZI  22 124
M  ZZM  23 63
M  ZZI  23 104
M  ZZM  24 64
M  ZZI  24 105
M  ZZM  25 1
M  ZZI  25 111
M  ZZM  26 66
M  ZZI  26 222
M  ZZM  27 63
M  ZZI  27 104
M  ZZM  28 44
M  ZZI  28 248
M  ZZM  29 37
M  ZZI  29 125
M  ZZM  30 37
M  ZZI  30 125
M  ZZM  31 1
M  ZZI  31 112
M  ZZM  32 1
M  ZZI  32 113
M  ZZM  33 6
M  ZZI  33 60
M  ZZM  34 1
M  ZZI  34 112
M  ZZM  35 5
M  ZZI  35 1
M  ZZM  36 5
M  ZZI  36 1
M  ZZM  37 5
M  ZZI  37 1
M  ZZM  38 28
M  ZZI  38 11
M  ZZM  39 5
M  ZZI  39 1
M  ZZM  40 5
M  ZZI  40 1
M  ZZM  41 5
M  ZZI  41 1
M  ZZM  42 5
M  ZZI  42 1
M  ZZM  43 5
M  ZZI  43 1
M  ZZM  44 5
M  ZZI  44 1
M  ZZM  45 5
M  ZZI  45 1
M  ZZM  46 5
M  ZZI  46 1
M  ZZM  47 5
M  ZZI  47 1
M  ZZM  48 5
M  ZZI  48 1
M  ZZM  49 5
M  ZZI  49 1
M  ZZM  50 28
M  ZZI  50 11
M  ZZM  51 5
M  ZZI  51 1
M  ZZM  52 5
M  ZZI  52 1
M  ZZM  53 5
M  ZZI  53 1
M  ZZM  54 5
M  ZZI  54 1
M  ZZM  55 5
M  ZZI  55 1
M  ZZM  56 5
M  ZZI  56 1
M  ZZM  57 5
M  ZZI  57 1
M  ZZM  58 5
M  ZZI  58 1
M  ZZM  59 5
M  ZZI  59 1
M  ZZM  60 5
M  ZZI  60 1
M  ZZM  61 5
M  ZZI  61 1
M  ZZM  62 5
M  ZZI  62 1
M  ZZM  63 5
M  ZZI  63 1
M  ZZM  64 5
M  ZZI  64 1
M  ZZM  65 5
M  ZZI  65 1
M  ZZM  66 21
M  ZZI  66 20
M  ZZM  67 5
M  ZZI  67 1
M  ZZM  68 5
M  ZZI  68 1
M  END
> <IX>
1

> <NAME>
VHL_4QNQ_25.pdb

> <Score>
-23.990164

> <Natom>
68

> <Nflex>
8

> <Hbond>
-8.030133

> <Hphob>
-6.47777

> <VwInt>
-30.390362

> <Dsolv>
21.189313

> <SolEl>
9.856331

> <Eintl>
6.432294

> <RecConf>
ND

> <projPath>
VHL_maps/

> <NAME_>
VHL_4QNQ_25.pdb

$$$$
