VHL_6MX8_4.pdb
  MOLSOFT 04032206443D

 65 67  0  0  1  0  0  0  0  0999 V2000
   18.3863   -6.9352   -5.3405 C   0  0  0  0  0  0  0  0  0  0  0  0
   17.2040   -6.0064   -5.2921 C   0  0  0  0  0  0  0  0  0  0  0  0
   16.1035   -6.3755   -5.6697 O   0  0  0  0  0  0  0  0  0  0  0  0
   17.4939   -4.7600   -4.7697 N   0  0  0  0  0  0  0  0  0  0  0  0
   16.5161   -3.6731   -4.6552 C   0  0  1  0  0  0  0  0  0  0  0  0
   15.8906   -3.5497   -3.2278 C   0  0  0  0  0  0  0  0  0  0  0  0
   16.8892   -2.9893   -2.2027 C   0  0  0  0  0  0  0  0  0  0  0  0
   14.6634   -2.6250   -3.2617 C   0  0  0  0  0  0  0  0  0  0  0  0
   15.4131   -4.9186   -2.7181 C   0  0  0  0  0  0  0  0  0  0  0  0
   17.2085   -2.3786   -5.1247 C   0  0  0  0  0  0  0  0  0  0  0  0
   18.3580   -2.1212   -4.7981 O   0  0  0  0  0  0  0  0  0  0  0  0
   16.4683   -1.4663   -5.8778 N   0  0  0  0  0  0  0  0  0  0  0  0
   17.0260   -0.1649   -6.2261 C   0  0  2  0  0  0  0  0  0  0  0  0
   17.1958    0.8036   -5.0634 C   0  0  0  0  0  0  0  0  0  0  0  0
   16.5343    0.7531   -4.0353 O   0  0  0  0  0  0  0  0  0  0  0  0
   18.1004    1.8044   -5.3636 N   0  0  0  0  0  0  0  0  0  0  0  0
   18.2075    3.0078   -4.5729 C   0  0  0  0  0  0  0  0  0  0  0  0
   17.2676    4.0580   -5.1070 C   0  0  0  0  0  0  0  0  0  0  0  0
   17.5535    4.7308   -6.2920 C   0  0  0  0  0  0  0  0  0  0  0  0
   16.6778    5.6763   -6.7983 C   0  0  0  0  0  0  0  0  0  0  0  0
   15.4952    5.9770   -6.1309 C   0  0  0  0  0  0  0  0  0  0  0  0
   14.6114    7.0172   -6.6357 C   0  0  0  0  0  0  0  0  0  0  0  0
   13.9328    7.1352   -7.8422 C   0  0  0  0  0  0  0  0  0  0  0  0
   13.8959    6.1478   -8.9446 C   0  0  0  0  0  0  0  0  0  0  0  0
   13.2289    8.3124   -8.0014 N   0  0  0  0  0  0  0  0  0  0  0  0
   13.3731    9.0573   -6.9286 C   0  0  0  0  0  0  0  0  0  0  0  0
   14.3159    8.4068   -5.6685 S   0  0  0  0  0  0  0  0  0  0  0  0
   15.1956    5.2862   -4.9609 C   0  0  0  0  0  0  0  0  0  0  0  0
   16.0688    4.3366   -4.4583 C   0  0  0  0  0  0  0  0  0  0  0  0
   16.0368    0.4479   -7.2117 C   0  0  0  0  0  0  0  0  0  0  0  0
   15.3740   -0.7557   -7.8395 C   0  0  1  0  0  0  0  0  0  0  0  0
   16.1742   -1.2326   -8.9305 O   0  0  0  0  0  0  0  0  0  0  0  0
   15.3230   -1.7751   -6.7096 C   0  0  0  0  0  0  0  0  0  0  0  0
   19.3306   -6.3910   -5.2474 H   0  0  0  0  0  0  0  0  0  0  0  0
   18.3883   -7.4629   -6.2980 H   0  0  0  0  0  0  0  0  0  0  0  0
   18.3014   -7.6604   -4.5279 H   0  0  0  0  0  0  0  0  0  0  0  0
   18.4432   -4.5736   -4.4690 H   0  0  0  0  0  0  0  0  0  0  0  0
   15.7297   -3.9133   -5.3570 H   0  0  0  0  0  0  0  0  0  0  0  0
   16.4686   -2.9960   -1.1918 H   0  0  0  0  0  0  0  0  0  0  0  0
   17.1673   -1.9541   -2.4220 H   0  0  0  0  0  0  0  0  0  0  0  0
   17.8080   -3.5780   -2.1733 H   0  0  0  0  0  0  0  0  0  0  0  0
   14.9273   -1.6010   -3.5387 H   0  0  0  0  0  0  0  0  0  0  0  0
   14.1756   -2.5710   -2.2829 H   0  0  0  0  0  0  0  0  0  0  0  0
   13.9145   -2.9813   -3.9760 H   0  0  0  0  0  0  0  0  0  0  0  0
   14.9245   -4.8363   -1.7423 H   0  0  0  0  0  0  0  0  0  0  0  0
   16.2392   -5.6246   -2.5977 H   0  0  0  0  0  0  0  0  0  0  0  0
   14.6883   -5.3651   -3.4016 H   0  0  0  0  0  0  0  0  0  0  0  0
   17.9997   -0.3310   -6.6891 H   0  0  0  0  0  0  0  0  0  0  0  0
   18.6412    1.7532   -6.2206 H   0  0  0  0  0  0  0  0  0  0  0  0
   17.9924    2.7809   -3.5231 H   0  0  0  0  0  0  0  0  0  0  0  0
   19.2439    3.3571   -4.6298 H   0  0  0  0  0  0  0  0  0  0  0  0
   18.4730    4.5231   -6.8316 H   0  0  0  0  0  0  0  0  0  0  0  0
   16.9392    6.1985   -7.7145 H   0  0  0  0  0  0  0  0  0  0  0  0
   14.8633    6.0977   -9.4522 H   0  0  0  0  0  0  0  0  0  0  0  0
   13.1412    6.4175   -9.6887 H   0  0  0  0  0  0  0  0  0  0  0  0
   13.6507    5.1496   -8.5697 H   0  0  0  0  0  0  0  0  0  0  0  0
   12.9262   10.0338   -6.8321 H   0  0  0  0  0  0  0  0  0  0  0  0
   14.2703    5.4830   -4.4264 H   0  0  0  0  0  0  0  0  0  0  0  0
   15.8035    3.8075   -3.5471 H   0  0  0  0  0  0  0  0  0  0  0  0
   15.2871    1.0544   -6.6897 H   0  0  0  0  0  0  0  0  0  0  0  0
   16.5397    1.0887   -7.9440 H   0  0  0  0  0  0  0  0  0  0  0  0
   14.3798   -0.5206   -8.2193 H   0  0  0  0  0  0  0  0  0  0  0  0
   17.1074   -1.1825   -8.6521 H   0  0  0  0  0  0  0  0  0  0  0  0
   15.3856   -2.7986   -7.0866 H   0  0  0  0  0  0  0  0  0  0  0  0
   14.4245   -1.6486   -6.0974 H   0  0  0  0  0  0  0  0  0  0  0  0
  1 34  1  0  0  0  0
  1 35  1  0  0  0  0
  1 36  1  0  0  0  0
  1  2  1  0  0  0  0
  2  3  2  0  0  0  0
  2  4  1  0  0  0  0
  4 37  1  0  0  0  0
  5  4  1  0  0  0  0
  5 38  1  0  0  0  0
  5  6  1  0  0  0  0
  5 10  1  0  0  0  0
  6  7  1  0  0  0  0
  6  8  1  0  0  0  0
  6  9  1  0  0  0  0
  7 39  1  0  0  0  0
  7 40  1  0  0  0  0
  7 41  1  0  0  0  0
  8 42  1  0  0  0  0
  8 43  1  0  0  0  0
  8 44  1  0  0  0  0
  9 45  1  0  0  0  0
  9 46  1  0  0  0  0
  9 47  1  0  0  0  0
 10 11  2  0  0  0  0
 10 12  1  0  0  0  0
 12 33  1  0  0  0  0
 13 12  1  0  0  0  0
 13 30  1  0  0  0  0
 13 48  1  0  0  0  0
 13 14  1  0  0  0  0
 14 15  2  0  0  0  0
 14 16  1  0  0  0  0
 16 49  1  0  0  0  0
 16 17  1  0  0  0  0
 17 50  1  0  0  0  0
 17 51  1  0  0  0  0
 17 18  1  0  0  0  0
 18 19  1  0  0  0  0
 18 29  2  0  0  0  0
 19 52  1  0  0  0  0
 19 20  2  0  0  0  0
 20 53  1  0  0  0  0
 20 21  1  0  0  0  0
 21 28  2  0  0  0  0
 21 22  1  0  0  0  0
 22 23  2  0  0  0  0
 22 27  1  0  0  0  0
 23 24  1  0  0  0  0
 23 25  1  0  0  0  0
 24 54  1  0  0  0  0
 24 55  1  0  0  0  0
 24 56  1  0  0  0  0
 25 26  2  0  0  0  0
 26 57  1  0  0  0  0
 26 27  1  0  0  0  0
 28 58  1  0  0  0  0
 28 29  1  0  0  0  0
 29 59  1  0  0  0  0
 31 30  1  0  0  0  0
 30 60  1  0  0  0  0
 30 61  1  0  0  0  0
 31 33  1  0  0  0  0
 31 62  1  0  0  0  0
 31 32  1  0  0  0  0
 32 63  1  0  0  0  0
 33 64  1  0  0  0  0
 33 65  1  0  0  0  0
M  ZZC   1 c1
M  ZZC   2 c2
M  ZZC   3 o1
M  ZZC   4 n1
M  ZZC   5 c3
M  ZZC   6 c4
M  ZZC   7 c5
M  ZZC   8 c6
M  ZZC   9 c7
M  ZZC  10 c8
M  ZZC  11 o2
M  ZZC  12 n2
M  ZZC  13 c9
M  ZZC  14 c10
M  ZZC  15 o3
M  ZZC  16 n3
M  ZZC  17 c11
M  ZZC  18 c12
M  ZZC  19 c13
M  ZZC  20 c14
M  ZZC  21 c15
M  ZZC  22 c16
M  ZZC  23 c17
M  ZZC  24 c18
M  ZZC  25 n4
M  ZZC  26 c19
M  ZZC  27 s1
M  ZZC  28 c20
M  ZZC  29 c21
M  ZZC  30 c22
M  ZZC  31 c23
M  ZZC  32 o4
M  ZZC  33 c24
M  ZZC  34 h11
M  ZZC  35 h12
M  ZZC  36 h13
M  ZZC  37 h01
M  ZZC  38 h31
M  ZZC  39 h51
M  ZZC  40 h52
M  ZZC  41 h53
M  ZZC  42 h61
M  ZZC  43 h62
M  ZZC  44 h63
M  ZZC  45 h71
M  ZZC  46 h72
M  ZZC  47 h73
M  ZZC  48 h91
M  ZZC  49 h02
M  ZZC  50 h111
M  ZZC  51 h112
M  ZZC  52 h131
M  ZZC  53 h141
M  ZZC  54 h181
M  ZZC  55 h182
M  ZZC  56 h183
M  ZZC  57 h191
M  ZZC  58 h201
M  ZZC  59 h211
M  ZZC  60 h221
M  ZZC  61 h222
M  ZZC  62 h231
M  ZZC  63 h41
M  ZZC  64 h241
M  ZZC  65 h242
M  ZZM   1 1
M  ZZI   1 111
M  ZZM   2 3
M  ZZI   2 121
M  ZZM   3 7
M  ZZI   3 81
M  ZZM   4 10
M  ZZI   4 211
M  ZZM   5 1
M  ZZI   5 113
M  ZZM   6 1
M  ZZI   6 110
M  ZZM   7 1
M  ZZI   7 111
M  ZZM   8 1
M  ZZI   8 111
M  ZZM   9 1
M  ZZI   9 111
M  ZZM  10 3
M  ZZI  10 121
M  ZZM  11 7
M  ZZI  11 81
M  ZZM  12 10
M  ZZI  12 192
M  ZZM  13 1
M  ZZI  13 113
M  ZZM  14 3
M  ZZI  14 121
M  ZZM  15 7
M  ZZI  15 81
M  ZZM  16 10
M  ZZI  16 211
M  ZZM  17 1
M  ZZI  17 112
M  ZZM  18 37
M  ZZI  18 124
M  ZZM  19 37
M  ZZI  19 125
M  ZZM  20 37
M  ZZI  20 125
M  ZZM  21 37
M  ZZI  21 124
M  ZZM  22 63
M  ZZI  22 104
M  ZZM  23 64
M  ZZI  23 105
M  ZZM  24 1
M  ZZI  24 111
M  ZZM  25 66
M  ZZI  25 222
M  ZZM  26 63
M  ZZI  26 104
M  ZZM  27 44
M  ZZI  27 248
M  ZZM  28 37
M  ZZI  28 125
M  ZZM  29 37
M  ZZI  29 125
M  ZZM  30 1
M  ZZI  30 112
M  ZZM  31 1
M  ZZI  31 113
M  ZZM  32 6
M  ZZI  32 60
M  ZZM  33 1
M  ZZI  33 112
M  ZZM  34 5
M  ZZI  34 1
M  ZZM  35 5
M  ZZI  35 1
M  ZZM  36 5
M  ZZI  36 1
M  ZZM  37 28
M  ZZI  37 11
M  ZZM  38 5
M  ZZI  38 1
M  ZZM  39 5
M  ZZI  39 1
M  ZZM  40 5
M  ZZI  40 1
M  ZZM  41 5
M  ZZI  41 1
M  ZZM  42 5
M  ZZI  42 1
M  ZZM  43 5
M  ZZI  43 1
M  ZZM  44 5
M  ZZI  44 1
M  ZZM  45 5
M  ZZI  45 1
M  ZZM  46 5
M  ZZI  46 1
M  ZZM  47 5
M  ZZI  47 1
M  ZZM  48 5
M  ZZI  48 1
M  ZZM  49 28
M  ZZI  49 11
M  ZZM  50 5
M  ZZI  50 1
M  ZZM  51 5
M  ZZI  51 1
M  ZZM  52 5
M  ZZI  52 1
M  ZZM  53 5
M  ZZI  53 1
M  ZZM  54 5
M  ZZI  54 1
M  ZZM  55 5
M  ZZI  55 1
M  ZZM  56 5
M  ZZI  56 1
M  ZZM  57 5
M  ZZI  57 1
M  ZZM  58 5
M  ZZI  58 1
M  ZZM  59 5
M  ZZI  59 1
M  ZZM  60 5
M  ZZI  60 1
M  ZZM  61 5
M  ZZI  61 1
M  ZZM  62 5
M  ZZI  62 1
M  ZZM  63 21
M  ZZI  63 20
M  ZZM  64 5
M  ZZI  64 1
M  ZZM  65 5
M  ZZI  65 1
M  END
> <IX>
1

> <NAME>
VHL_6MX8_4.pdb

> <Score>
-24.138832

> <Natom>
65

> <Nflex>
8

> <Hbond>
-7.839451

> <Hphob>
-6.3661

> <VwInt>
-30.253699

> <Dsolv>
21.41669

> <SolEl>
10.34469

> <Eintl>
4.206589

> <RecConf>
ND

> <projPath>
VHL_maps/

> <NAME_>
VHL_6MX8_4.pdb

$$$$
