VHL_5EU1_6.pdb
  MOLSOFT 04032206403D

 65 67  0  0  1  0  0  0  0  0999 V2000
   13.3497   -1.8939   -7.0101 O   0  0  0  0  0  0  0  0  0  0  0  0
   13.0937   -0.7972   -6.5445 C   0  0  0  0  0  0  0  0  0  0  0  0
   13.9666   -0.0681   -5.7729 N   0  0  0  0  0  0  0  0  0  0  0  0
   15.3028   -0.5590   -5.4276 C   0  0  1  0  0  0  0  0  0  0  0  0
   16.3489    0.5945   -5.4547 C   0  0  0  0  0  0  0  0  0  0  0  0
   16.0278    1.7243   -4.4597 C   0  0  0  0  0  0  0  0  0  0  0  0
   17.7432    0.0580   -5.1246 C   0  0  0  0  0  0  0  0  0  0  0  0
   16.4028    1.1923   -6.8728 C   0  0  0  0  0  0  0  0  0  0  0  0
   15.1344   -1.2658   -4.0674 C   0  0  0  0  0  0  0  0  0  0  0  0
   14.4909   -0.7413   -3.1661 O   0  0  0  0  0  0  0  0  0  0  0  0
   15.7112   -2.5290   -3.8982 N   0  0  0  0  0  0  0  0  0  0  0  0
   15.4704   -3.2897   -2.6812 C   0  0  2  0  0  0  0  0  0  0  0  0
   16.4477   -2.8911   -1.5715 C   0  0  0  0  0  0  0  0  0  0  0  0
   17.5460   -2.3986   -1.7915 O   0  0  0  0  0  0  0  0  0  0  0  0
   15.9932   -3.1957   -0.3026 N   0  0  0  0  0  0  0  0  0  0  0  0
   16.7706   -2.8636    0.8756 C   0  0  0  0  0  0  0  0  0  0  0  0
   16.2673   -3.5766    2.1029 C   0  0  0  0  0  0  0  0  0  0  0  0
   16.9618   -4.6602    2.6270 C   0  0  0  0  0  0  0  0  0  0  0  0
   16.4734   -5.3525    3.7203 C   0  0  0  0  0  0  0  0  0  0  0  0
   15.2830   -4.9786    4.3412 C   0  0  0  0  0  0  0  0  0  0  0  0
   14.7559   -5.7324    5.4798 C   0  0  0  0  0  0  0  0  0  0  0  0
   13.4599   -6.1327    5.7962 C   0  0  0  0  0  0  0  0  0  0  0  0
   12.2201   -5.8940    5.0189 C   0  0  0  0  0  0  0  0  0  0  0  0
   13.3341   -6.8404    6.9754 N   0  0  0  0  0  0  0  0  0  0  0  0
   14.5104   -6.9747    7.5426 C   0  0  0  0  0  0  0  0  0  0  0  0
   15.8269   -6.2726    6.7187 S   0  0  0  0  0  0  0  0  0  0  0  0
   14.6018   -3.8778    3.8247 C   0  0  0  0  0  0  0  0  0  0  0  0
   15.0826   -3.1909    2.7218 C   0  0  0  0  0  0  0  0  0  0  0  0
   15.6705   -4.7343   -3.1005 C   0  0  0  0  0  0  0  0  0  0  0  0
   16.7416   -4.6588   -4.1779 C   0  0  1  0  0  0  0  0  0  0  0  0
   16.5946   -5.7299   -5.1135 O   0  0  0  0  0  0  0  0  0  0  0  0
   16.5352   -3.2906   -4.8285 C   0  0  0  0  0  0  0  0  0  0  0  0
   11.7717   -0.1201   -6.7443 C   0  0  0  0  0  0  0  0  0  0  0  0
   13.6219    0.7701   -5.3183 H   0  0  0  0  0  0  0  0  0  0  0  0
   15.5763   -1.3011   -6.1830 H   0  0  0  0  0  0  0  0  0  0  0  0
   15.9931    1.3709   -3.4252 H   0  0  0  0  0  0  0  0  0  0  0  0
   15.0504    2.1694   -4.6728 H   0  0  0  0  0  0  0  0  0  0  0  0
   16.7611    2.5342   -4.5114 H   0  0  0  0  0  0  0  0  0  0  0  0
   18.0299   -0.7316   -5.8239 H   0  0  0  0  0  0  0  0  0  0  0  0
   17.7942   -0.3508   -4.1108 H   0  0  0  0  0  0  0  0  0  0  0  0
   18.5015    0.8450   -5.1936 H   0  0  0  0  0  0  0  0  0  0  0  0
   16.6182    0.4249   -7.6244 H   0  0  0  0  0  0  0  0  0  0  0  0
   17.1829    1.9560   -6.9563 H   0  0  0  0  0  0  0  0  0  0  0  0
   15.4585    1.6694   -7.1536 H   0  0  0  0  0  0  0  0  0  0  0  0
   14.4469   -3.1172   -2.3277 H   0  0  0  0  0  0  0  0  0  0  0  0
   15.0668   -3.5886   -0.1765 H   0  0  0  0  0  0  0  0  0  0  0  0
   17.8224   -3.1053    0.6852 H   0  0  0  0  0  0  0  0  0  0  0  0
   16.7180   -1.7791    1.0199 H   0  0  0  0  0  0  0  0  0  0  0  0
   17.8891   -4.9929    2.1685 H   0  0  0  0  0  0  0  0  0  0  0  0
   17.0360   -6.2121    4.0711 H   0  0  0  0  0  0  0  0  0  0  0  0
   11.8473   -4.8774    5.1746 H   0  0  0  0  0  0  0  0  0  0  0  0
   11.4235   -6.5807    5.3129 H   0  0  0  0  0  0  0  0  0  0  0  0
   12.4075   -6.0218    3.9494 H   0  0  0  0  0  0  0  0  0  0  0  0
   14.6450   -7.4980    8.4786 H   0  0  0  0  0  0  0  0  0  0  0  0
   13.6806   -3.5328    4.2829 H   0  0  0  0  0  0  0  0  0  0  0  0
   14.5181   -2.3441    2.3412 H   0  0  0  0  0  0  0  0  0  0  0  0
   15.9617   -5.3956   -2.2795 H   0  0  0  0  0  0  0  0  0  0  0  0
   14.7430   -5.1393   -3.5178 H   0  0  0  0  0  0  0  0  0  0  0  0
   17.7413   -4.7212   -3.7392 H   0  0  0  0  0  0  0  0  0  0  0  0
   16.5088   -6.5598   -4.6089 H   0  0  0  0  0  0  0  0  0  0  0  0
   16.0661   -3.3418   -5.8123 H   0  0  0  0  0  0  0  0  0  0  0  0
   17.4924   -2.7781   -4.9512 H   0  0  0  0  0  0  0  0  0  0  0  0
   11.2229   -0.1057   -5.7993 H   0  0  0  0  0  0  0  0  0  0  0  0
   11.1907   -0.6645   -7.4918 H   0  0  0  0  0  0  0  0  0  0  0  0
   11.9277    0.9035   -7.0915 H   0  0  0  0  0  0  0  0  0  0  0  0
  1  2  2  0  0  0  0
  2  3  1  0  0  0  0
  2 33  1  0  0  0  0
  4  3  1  0  0  0  0
  3 34  1  0  0  0  0
  4  5  1  0  0  0  0
  4 35  1  0  0  0  0
  4  9  1  0  0  0  0
  5  6  1  0  0  0  0
  5  7  1  0  0  0  0
  5  8  1  0  0  0  0
  6 36  1  0  0  0  0
  6 37  1  0  0  0  0
  6 38  1  0  0  0  0
  7 39  1  0  0  0  0
  7 40  1  0  0  0  0
  7 41  1  0  0  0  0
  8 42  1  0  0  0  0
  8 43  1  0  0  0  0
  8 44  1  0  0  0  0
  9 10  2  0  0  0  0
  9 11  1  0  0  0  0
 11 32  1  0  0  0  0
 12 11  1  0  0  0  0
 12 29  1  0  0  0  0
 12 45  1  0  0  0  0
 12 13  1  0  0  0  0
 13 14  2  0  0  0  0
 13 15  1  0  0  0  0
 15 46  1  0  0  0  0
 15 16  1  0  0  0  0
 16 47  1  0  0  0  0
 16 48  1  0  0  0  0
 16 17  1  0  0  0  0
 17 18  1  0  0  0  0
 17 28  2  0  0  0  0
 18 49  1  0  0  0  0
 18 19  2  0  0  0  0
 19 50  1  0  0  0  0
 19 20  1  0  0  0  0
 20 27  2  0  0  0  0
 20 21  1  0  0  0  0
 21 22  2  0  0  0  0
 21 26  1  0  0  0  0
 22 23  1  0  0  0  0
 22 24  1  0  0  0  0
 23 51  1  0  0  0  0
 23 52  1  0  0  0  0
 23 53  1  0  0  0  0
 24 25  2  0  0  0  0
 25 54  1  0  0  0  0
 25 26  1  0  0  0  0
 27 55  1  0  0  0  0
 27 28  1  0  0  0  0
 28 56  1  0  0  0  0
 30 29  1  0  0  0  0
 29 57  1  0  0  0  0
 29 58  1  0  0  0  0
 30 32  1  0  0  0  0
 30 59  1  0  0  0  0
 30 31  1  0  0  0  0
 31 60  1  0  0  0  0
 32 61  1  0  0  0  0
 32 62  1  0  0  0  0
 33 63  1  0  0  0  0
 33 64  1  0  0  0  0
 33 65  1  0  0  0  0
M  ZZC   1 o1
M  ZZC   2 c1
M  ZZC   3 n1
M  ZZC   4 c2
M  ZZC   5 c3
M  ZZC   6 c4
M  ZZC   7 c5
M  ZZC   8 c6
M  ZZC   9 c7
M  ZZC  10 o2
M  ZZC  11 n2
M  ZZC  12 c8
M  ZZC  13 c9
M  ZZC  14 o3
M  ZZC  15 n3
M  ZZC  16 c10
M  ZZC  17 c11
M  ZZC  18 c12
M  ZZC  19 c13
M  ZZC  20 c14
M  ZZC  21 c15
M  ZZC  22 c16
M  ZZC  23 c17
M  ZZC  24 n4
M  ZZC  25 c18
M  ZZC  26 s1
M  ZZC  27 c19
M  ZZC  28 c20
M  ZZC  29 c21
M  ZZC  30 c22
M  ZZC  31 o4
M  ZZC  32 c23
M  ZZC  33 c24
M  ZZC  34 h11
M  ZZC  35 h21
M  ZZC  36 h41
M  ZZC  37 h42
M  ZZC  38 h43
M  ZZC  39 h51
M  ZZC  40 h52
M  ZZC  41 h53
M  ZZC  42 h61
M  ZZC  43 h62
M  ZZC  44 h63
M  ZZC  45 h81
M  ZZC  46 h31
M  ZZC  47 h101
M  ZZC  48 h102
M  ZZC  49 h121
M  ZZC  50 h131
M  ZZC  51 h171
M  ZZC  52 h172
M  ZZC  53 h173
M  ZZC  54 h181
M  ZZC  55 h191
M  ZZC  56 h201
M  ZZC  57 h211
M  ZZC  58 h212
M  ZZC  59 h221
M  ZZC  60 h01
M  ZZC  61 h231
M  ZZC  62 h232
M  ZZC  63 h241
M  ZZC  64 h242
M  ZZC  65 h243
M  ZZM   1 7
M  ZZI   1 81
M  ZZM   2 3
M  ZZI   2 121
M  ZZM   3 10
M  ZZI   3 211
M  ZZM   4 1
M  ZZI   4 113
M  ZZM   5 1
M  ZZI   5 110
M  ZZM   6 1
M  ZZI   6 111
M  ZZM   7 1
M  ZZI   7 111
M  ZZM   8 1
M  ZZI   8 111
M  ZZM   9 3
M  ZZI   9 121
M  ZZM  10 7
M  ZZI  10 81
M  ZZM  11 10
M  ZZI  11 192
M  ZZM  12 1
M  ZZI  12 113
M  ZZM  13 3
M  ZZI  13 121
M  ZZM  14 7
M  ZZI  14 81
M  ZZM  15 10
M  ZZI  15 211
M  ZZM  16 1
M  ZZI  16 112
M  ZZM  17 37
M  ZZI  17 124
M  ZZM  18 37
M  ZZI  18 125
M  ZZM  19 37
M  ZZI  19 125
M  ZZM  20 37
M  ZZI  20 124
M  ZZM  21 63
M  ZZI  21 104
M  ZZM  22 64
M  ZZI  22 105
M  ZZM  23 1
M  ZZI  23 111
M  ZZM  24 66
M  ZZI  24 222
M  ZZM  25 63
M  ZZI  25 104
M  ZZM  26 44
M  ZZI  26 248
M  ZZM  27 37
M  ZZI  27 125
M  ZZM  28 37
M  ZZI  28 125
M  ZZM  29 1
M  ZZI  29 112
M  ZZM  30 1
M  ZZI  30 113
M  ZZM  31 6
M  ZZI  31 60
M  ZZM  32 1
M  ZZI  32 112
M  ZZM  33 1
M  ZZI  33 111
M  ZZM  34 28
M  ZZI  34 11
M  ZZM  35 5
M  ZZI  35 1
M  ZZM  36 5
M  ZZI  36 1
M  ZZM  37 5
M  ZZI  37 1
M  ZZM  38 5
M  ZZI  38 1
M  ZZM  39 5
M  ZZI  39 1
M  ZZM  40 5
M  ZZI  40 1
M  ZZM  41 5
M  ZZI  41 1
M  ZZM  42 5
M  ZZI  42 1
M  ZZM  43 5
M  ZZI  43 1
M  ZZM  44 5
M  ZZI  44 1
M  ZZM  45 5
M  ZZI  45 1
M  ZZM  46 28
M  ZZI  46 11
M  ZZM  47 5
M  ZZI  47 1
M  ZZM  48 5
M  ZZI  48 1
M  ZZM  49 5
M  ZZI  49 1
M  ZZM  50 5
M  ZZI  50 1
M  ZZM  51 5
M  ZZI  51 1
M  ZZM  52 5
M  ZZI  52 1
M  ZZM  53 5
M  ZZI  53 1
M  ZZM  54 5
M  ZZI  54 1
M  ZZM  55 5
M  ZZI  55 1
M  ZZM  56 5
M  ZZI  56 1
M  ZZM  57 5
M  ZZI  57 1
M  ZZM  58 5
M  ZZI  58 1
M  ZZM  59 5
M  ZZI  59 1
M  ZZM  60 21
M  ZZI  60 20
M  ZZM  61 5
M  ZZI  61 1
M  ZZM  62 5
M  ZZI  62 1
M  ZZM  63 5
M  ZZI  63 1
M  ZZM  64 5
M  ZZI  64 1
M  ZZM  65 5
M  ZZI  65 1
M  END
> <IX>
1

> <NAME>
VHL_5EU1_6.pdb

> <Score>
-12.583741

> <Natom>
65

> <Nflex>
8

> <Hbond>
-2.82117

> <Hphob>
-6.290398

> <VwInt>
-27.087404

> <Dsolv>
16.973812

> <SolEl>
10.370631

> <Eintl>
2.468022

> <RecConf>
ND

> <projPath>
VHL_maps/

> <NAME_>
VHL_5EU1_6.pdb

$$$$
