VHL_7M0T_3.pdb
  MOLSOFT 04032206443D

 68 70  0  0  1  0  0  0  0  0999 V2000
   18.3884   -6.7445   -5.3974 C   0  0  0  0  0  0  0  0  0  0  0  0
   17.1672   -5.8725   -5.2870 C   0  0  0  0  0  0  0  0  0  0  0  0
   16.0725   -6.2838   -5.6353 O   0  0  0  0  0  0  0  0  0  0  0  0
   17.4172   -4.6306   -4.7331 N   0  0  0  0  0  0  0  0  0  0  0  0
   16.3929   -3.6027   -4.5140 C   0  0  1  0  0  0  0  0  0  0  0  0
   15.8064   -3.6282   -3.0653 C   0  0  0  0  0  0  0  0  0  0  0  0
   14.5358   -2.7698   -2.9986 C   0  0  0  0  0  0  0  0  0  0  0  0
   15.4001   -5.0515   -2.6565 C   0  0  0  0  0  0  0  0  0  0  0  0
   16.8061   -3.1117   -2.0196 C   0  0  0  0  0  0  0  0  0  0  0  0
   17.0270   -2.2457   -4.8961 C   0  0  0  0  0  0  0  0  0  0  0  0
   18.1276   -1.9287   -4.4708 O   0  0  0  0  0  0  0  0  0  0  0  0
   16.3061   -1.3648   -5.7103 N   0  0  0  0  0  0  0  0  0  0  0  0
   16.8254   -0.0270   -6.0138 C   0  0  2  0  0  0  0  0  0  0  0  0
   16.7785    0.9495   -4.8346 C   0  0  0  0  0  0  0  0  0  0  0  0
   17.5783    1.8698   -4.7439 O   0  0  0  0  0  0  0  0  0  0  0  0
   15.6705    0.8187   -4.0166 N   0  0  0  0  0  0  0  0  0  0  0  0
   15.3674    1.7412   -2.9327 C   0  0  1  0  0  0  0  0  0  0  0  0
   14.2798    2.7193   -3.3787 C   0  0  0  0  0  0  0  0  0  0  0  0
   15.0461    0.9770   -1.6610 C   0  0  0  0  0  0  0  0  0  0  0  0
   13.7460    0.7030   -1.2316 C   0  0  0  0  0  0  0  0  0  0  0  0
   13.5139   -0.0187   -0.0719 C   0  0  0  0  0  0  0  0  0  0  0  0
   14.5694   -0.4911    0.6964 C   0  0  0  0  0  0  0  0  0  0  0  0
   14.3188   -1.2449    1.9148 C   0  0  0  0  0  0  0  0  0  0  0  0
   13.7589   -0.8528    3.1233 C   0  0  0  0  0  0  0  0  0  0  0  0
   13.3207    0.5116    3.5023 C   0  0  0  0  0  0  0  0  0  0  0  0
   13.6371   -1.8582    4.0629 N   0  0  0  0  0  0  0  0  0  0  0  0
   14.1198   -2.9786    3.5758 C   0  0  0  0  0  0  0  0  0  0  0  0
   14.7493   -2.9063    1.9907 S   0  0  0  0  0  0  0  0  0  0  0  0
   15.8654   -0.2267    0.2744 C   0  0  0  0  0  0  0  0  0  0  0  0
   16.0960    0.4924   -0.8852 C   0  0  0  0  0  0  0  0  0  0  0  0
   15.9220    0.5126   -7.1210 C   0  0  0  0  0  0  0  0  0  0  0  0
   15.3295   -0.7229   -7.7644 C   0  0  1  0  0  0  0  0  0  0  0  0
   16.1725   -1.1827   -8.8308 O   0  0  0  0  0  0  0  0  0  0  0  0
   15.2545   -1.7406   -6.6336 C   0  0  0  0  0  0  0  0  0  0  0  0
   19.3030   -6.1464   -5.4535 H   0  0  0  0  0  0  0  0  0  0  0  0
   18.3188   -7.3482   -6.3066 H   0  0  0  0  0  0  0  0  0  0  0  0
   18.4313   -7.4065   -4.5295 H   0  0  0  0  0  0  0  0  0  0  0  0
   18.3670   -4.4178   -4.4513 H   0  0  0  0  0  0  0  0  0  0  0  0
   15.5837   -3.8203   -5.1994 H   0  0  0  0  0  0  0  0  0  0  0  0
   14.7467   -1.7205   -3.2282 H   0  0  0  0  0  0  0  0  0  0  0  0
   14.0814   -2.8019   -2.0032 H   0  0  0  0  0  0  0  0  0  0  0  0
   13.7850   -3.1039   -3.7119 H   0  0  0  0  0  0  0  0  0  0  0  0
   14.9321   -5.0660   -1.6677 H   0  0  0  0  0  0  0  0  0  0  0  0
   16.2568   -5.7289   -2.6101 H   0  0  0  0  0  0  0  0  0  0  0  0
   14.6763   -5.4707   -3.3572 H   0  0  0  0  0  0  0  0  0  0  0  0
   16.4143   -3.2230   -1.0039 H   0  0  0  0  0  0  0  0  0  0  0  0
   17.0327   -2.0517   -2.1573 H   0  0  0  0  0  0  0  0  0  0  0  0
   17.7512   -3.6565   -2.0623 H   0  0  0  0  0  0  0  0  0  0  0  0
   17.8642   -0.1283   -6.3458 H   0  0  0  0  0  0  0  0  0  0  0  0
   15.0242    0.0608   -4.1980 H   0  0  0  0  0  0  0  0  0  0  0  0
   16.2608    2.3442   -2.7356 H   0  0  0  0  0  0  0  0  0  0  0  0
   14.6220    3.3163   -4.2300 H   0  0  0  0  0  0  0  0  0  0  0  0
   14.0036    3.4090   -2.5744 H   0  0  0  0  0  0  0  0  0  0  0  0
   13.3745    2.1991   -3.7062 H   0  0  0  0  0  0  0  0  0  0  0  0
   12.8879    1.0476   -1.7981 H   0  0  0  0  0  0  0  0  0  0  0  0
   12.4912   -0.2218    0.2305 H   0  0  0  0  0  0  0  0  0  0  0  0
   14.1858    1.1312    3.7544 H   0  0  0  0  0  0  0  0  0  0  0  0
   12.6620    0.4833    4.3754 H   0  0  0  0  0  0  0  0  0  0  0  0
   12.7762    1.0033    2.6912 H   0  0  0  0  0  0  0  0  0  0  0  0
   14.1250   -3.8988    4.1420 H   0  0  0  0  0  0  0  0  0  0  0  0
   16.7151   -0.5823    0.8500 H   0  0  0  0  0  0  0  0  0  0  0  0
   17.1235    0.6710   -1.1908 H   0  0  0  0  0  0  0  0  0  0  0  0
   15.1163    1.1313   -6.7096 H   0  0  0  0  0  0  0  0  0  0  0  0
   16.4842    1.1312   -7.8286 H   0  0  0  0  0  0  0  0  0  0  0  0
   14.3433   -0.5216   -8.1827 H   0  0  0  0  0  0  0  0  0  0  0  0
   17.0981   -1.0961   -8.5348 H   0  0  0  0  0  0  0  0  0  0  0  0
   15.4066   -2.7602   -6.9975 H   0  0  0  0  0  0  0  0  0  0  0  0
   14.3063   -1.6696   -6.0902 H   0  0  0  0  0  0  0  0  0  0  0  0
  1 35  1  0  0  0  0
  1 36  1  0  0  0  0
  1 37  1  0  0  0  0
  1  2  1  0  0  0  0
  2  3  2  0  0  0  0
  2  4  1  0  0  0  0
  4 38  1  0  0  0  0
  5  4  1  0  0  0  0
  5 39  1  0  0  0  0
  5  6  1  0  0  0  0
  5 10  1  0  0  0  0
  6  7  1  0  0  0  0
  6  8  1  0  0  0  0
  6  9  1  0  0  0  0
  7 40  1  0  0  0  0
  7 41  1  0  0  0  0
  7 42  1  0  0  0  0
  8 43  1  0  0  0  0
  8 44  1  0  0  0  0
  8 45  1  0  0  0  0
  9 46  1  0  0  0  0
  9 47  1  0  0  0  0
  9 48  1  0  0  0  0
 10 11  2  0  0  0  0
 10 12  1  0  0  0  0
 12 34  1  0  0  0  0
 13 12  1  0  0  0  0
 13 31  1  0  0  0  0
 13 49  1  0  0  0  0
 13 14  1  0  0  0  0
 14 15  2  0  0  0  0
 14 16  1  0  0  0  0
 16 50  1  0  0  0  0
 17 16  1  0  0  0  0
 17 51  1  0  0  0  0
 17 18  1  0  0  0  0
 17 19  1  0  0  0  0
 18 52  1  0  0  0  0
 18 53  1  0  0  0  0
 18 54  1  0  0  0  0
 19 20  1  0  0  0  0
 19 30  2  0  0  0  0
 20 55  1  0  0  0  0
 20 21  2  0  0  0  0
 21 56  1  0  0  0  0
 21 22  1  0  0  0  0
 22 29  2  0  0  0  0
 22 23  1  0  0  0  0
 23 24  2  0  0  0  0
 23 28  1  0  0  0  0
 24 25  1  0  0  0  0
 24 26  1  0  0  0  0
 25 57  1  0  0  0  0
 25 58  1  0  0  0  0
 25 59  1  0  0  0  0
 26 27  2  0  0  0  0
 27 60  1  0  0  0  0
 27 28  1  0  0  0  0
 29 61  1  0  0  0  0
 29 30  1  0  0  0  0
 30 62  1  0  0  0  0
 32 31  1  0  0  0  0
 31 63  1  0  0  0  0
 31 64  1  0  0  0  0
 32 34  1  0  0  0  0
 32 65  1  0  0  0  0
 32 33  1  0  0  0  0
 33 66  1  0  0  0  0
 34 67  1  0  0  0  0
 34 68  1  0  0  0  0
M  ZZC   1 c1
M  ZZC   2 c2
M  ZZC   3 o1
M  ZZC   4 n1
M  ZZC   5 c3
M  ZZC   6 c4
M  ZZC   7 c5
M  ZZC   8 c6
M  ZZC   9 c7
M  ZZC  10 c8
M  ZZC  11 o2
M  ZZC  12 n2
M  ZZC  13 c9
M  ZZC  14 c10
M  ZZC  15 o3
M  ZZC  16 n3
M  ZZC  17 c11
M  ZZC  18 c12
M  ZZC  19 c13
M  ZZC  20 c14
M  ZZC  21 c15
M  ZZC  22 c16
M  ZZC  23 c17
M  ZZC  24 c18
M  ZZC  25 c19
M  ZZC  26 n4
M  ZZC  27 c20
M  ZZC  28 s1
M  ZZC  29 c21
M  ZZC  30 c22
M  ZZC  31 c23
M  ZZC  32 c24
M  ZZC  33 o4
M  ZZC  34 c25
M  ZZC  35 h11
M  ZZC  36 h12
M  ZZC  37 h13
M  ZZC  38 h01
M  ZZC  39 h31
M  ZZC  40 h51
M  ZZC  41 h52
M  ZZC  42 h53
M  ZZC  43 h61
M  ZZC  44 h62
M  ZZC  45 h63
M  ZZC  46 h71
M  ZZC  47 h72
M  ZZC  48 h73
M  ZZC  49 h91
M  ZZC  50 h02
M  ZZC  51 h111
M  ZZC  52 h121
M  ZZC  53 h122
M  ZZC  54 h123
M  ZZC  55 h141
M  ZZC  56 h151
M  ZZC  57 h191
M  ZZC  58 h192
M  ZZC  59 h193
M  ZZC  60 h201
M  ZZC  61 h211
M  ZZC  62 h221
M  ZZC  63 h231
M  ZZC  64 h232
M  ZZC  65 h241
M  ZZC  66 h41
M  ZZC  67 h251
M  ZZC  68 h252
M  ZZM   1 1
M  ZZI   1 111
M  ZZM   2 3
M  ZZI   2 121
M  ZZM   3 7
M  ZZI   3 81
M  ZZM   4 10
M  ZZI   4 211
M  ZZM   5 1
M  ZZI   5 113
M  ZZM   6 1
M  ZZI   6 110
M  ZZM   7 1
M  ZZI   7 111
M  ZZM   8 1
M  ZZI   8 111
M  ZZM   9 1
M  ZZI   9 111
M  ZZM  10 3
M  ZZI  10 121
M  ZZM  11 7
M  ZZI  11 81
M  ZZM  12 10
M  ZZI  12 192
M  ZZM  13 1
M  ZZI  13 113
M  ZZM  14 3
M  ZZI  14 121
M  ZZM  15 7
M  ZZI  15 81
M  ZZM  16 10
M  ZZI  16 211
M  ZZM  17 1
M  ZZI  17 113
M  ZZM  18 1
M  ZZI  18 111
M  ZZM  19 37
M  ZZI  19 124
M  ZZM  20 37
M  ZZI  20 125
M  ZZM  21 37
M  ZZI  21 125
M  ZZM  22 37
M  ZZI  22 124
M  ZZM  23 63
M  ZZI  23 104
M  ZZM  24 64
M  ZZI  24 105
M  ZZM  25 1
M  ZZI  25 111
M  ZZM  26 66
M  ZZI  26 222
M  ZZM  27 63
M  ZZI  27 104
M  ZZM  28 44
M  ZZI  28 248
M  ZZM  29 37
M  ZZI  29 125
M  ZZM  30 37
M  ZZI  30 125
M  ZZM  31 1
M  ZZI  31 112
M  ZZM  32 1
M  ZZI  32 113
M  ZZM  33 6
M  ZZI  33 60
M  ZZM  34 1
M  ZZI  34 112
M  ZZM  35 5
M  ZZI  35 1
M  ZZM  36 5
M  ZZI  36 1
M  ZZM  37 5
M  ZZI  37 1
M  ZZM  38 28
M  ZZI  38 11
M  ZZM  39 5
M  ZZI  39 1
M  ZZM  40 5
M  ZZI  40 1
M  ZZM  41 5
M  ZZI  41 1
M  ZZM  42 5
M  ZZI  42 1
M  ZZM  43 5
M  ZZI  43 1
M  ZZM  44 5
M  ZZI  44 1
M  ZZM  45 5
M  ZZI  45 1
M  ZZM  46 5
M  ZZI  46 1
M  ZZM  47 5
M  ZZI  47 1
M  ZZM  48 5
M  ZZI  48 1
M  ZZM  49 5
M  ZZI  49 1
M  ZZM  50 28
M  ZZI  50 11
M  ZZM  51 5
M  ZZI  51 1
M  ZZM  52 5
M  ZZI  52 1
M  ZZM  53 5
M  ZZI  53 1
M  ZZM  54 5
M  ZZI  54 1
M  ZZM  55 5
M  ZZI  55 1
M  ZZM  56 5
M  ZZI  56 1
M  ZZM  57 5
M  ZZI  57 1
M  ZZM  58 5
M  ZZI  58 1
M  ZZM  59 5
M  ZZI  59 1
M  ZZM  60 5
M  ZZI  60 1
M  ZZM  61 5
M  ZZI  61 1
M  ZZM  62 5
M  ZZI  62 1
M  ZZM  63 5
M  ZZI  63 1
M  ZZM  64 5
M  ZZI  64 1
M  ZZM  65 5
M  ZZI  65 1
M  ZZM  66 21
M  ZZI  66 20
M  ZZM  67 5
M  ZZI  67 1
M  ZZM  68 5
M  ZZI  68 1
M  END
> <IX>
1

> <NAME>
VHL_7M0T_3.pdb

> <Score>
-27.33894

> <Natom>
68

> <Nflex>
8

> <Hbond>
-7.500046

> <Hphob>
-6.921551

> <VwInt>
-28.481893

> <Dsolv>
17.326

> <SolEl>
7.033482

> <Eintl>
3.864848

> <RecConf>
ND

> <projPath>
VHL_maps/

> <NAME_>
VHL_7M0T_3.pdb

$$$$
