VHL_6UT0_3.pdb
  MOLSOFT 04032206433D

 65 67  0  0  1  0  0  0  0  0999 V2000
   18.0482   -7.0374   -5.1044 C   0  0  0  0  0  0  0  0  0  0  0  0
   16.9086   -6.0590   -5.0644 C   0  0  0  0  0  0  0  0  0  0  0  0
   15.8355   -6.3272   -5.5762 O   0  0  0  0  0  0  0  0  0  0  0  0
   17.1977   -4.9006   -4.3719 N   0  0  0  0  0  0  0  0  0  0  0  0
   16.2617   -3.7796   -4.2030 C   0  0  1  0  0  0  0  0  0  0  0  0
   15.8526   -3.5598   -2.7150 C   0  0  0  0  0  0  0  0  0  0  0  0
   14.7204   -2.5311   -2.5798 C   0  0  0  0  0  0  0  0  0  0  0  0
   15.3250   -4.8829   -2.1459 C   0  0  0  0  0  0  0  0  0  0  0  0
   17.0251   -3.0764   -1.8492 C   0  0  0  0  0  0  0  0  0  0  0  0
   16.9618   -2.5792   -4.8636 C   0  0  0  0  0  0  0  0  0  0  0  0
   18.1654   -2.4008   -4.7348 O   0  0  0  0  0  0  0  0  0  0  0  0
   16.1912   -1.6757   -5.5920 N   0  0  0  0  0  0  0  0  0  0  0  0
   16.8286   -0.5861   -6.3188 C   0  0  2  0  0  0  0  0  0  0  0  0
   17.3668    0.5047   -5.3956 C   0  0  0  0  0  0  0  0  0  0  0  0
   16.9227    0.7068   -4.2732 O   0  0  0  0  0  0  0  0  0  0  0  0
   18.3270    1.2942   -6.0053 N   0  0  0  0  0  0  0  0  0  0  0  0
   18.6923    2.5965   -5.4838 C   0  0  0  0  0  0  0  0  0  0  0  0
   17.6893    3.6056   -5.9771 C   0  0  0  0  0  0  0  0  0  0  0  0
   16.4425    3.6871   -5.3660 C   0  0  0  0  0  0  0  0  0  0  0  0
   15.4127    4.3799   -5.9629 C   0  0  0  0  0  0  0  0  0  0  0  0
   15.6195    5.0389   -7.1643 C   0  0  0  0  0  0  0  0  0  0  0  0
   14.4774    5.5947   -7.8568 C   0  0  0  0  0  0  0  0  0  0  0  0
   13.4461    4.9355   -8.5102 C   0  0  0  0  0  0  0  0  0  0  0  0
   13.3245    3.4749   -8.7379 C   0  0  0  0  0  0  0  0  0  0  0  0
   12.4342    5.7536   -8.9577 N   0  0  0  0  0  0  0  0  0  0  0  0
   12.7449    7.0047   -8.6986 C   0  0  0  0  0  0  0  0  0  0  0  0
   14.2242    7.2880   -7.9028 S   0  0  0  0  0  0  0  0  0  0  0  0
   16.8970    5.0817   -7.7094 C   0  0  0  0  0  0  0  0  0  0  0  0
   17.9224    4.3527   -7.1284 C   0  0  0  0  0  0  0  0  0  0  0  0
   15.7377   -0.0327   -7.2358 C   0  0  0  0  0  0  0  0  0  0  0  0
   14.4588   -0.3956   -6.5038 C   0  0  1  0  0  0  0  0  0  0  0  0
   13.3446   -0.4450   -7.3905 O   0  0  0  0  0  0  0  0  0  0  0  0
   14.7961   -1.7666   -5.9532 C   0  0  0  0  0  0  0  0  0  0  0  0
   19.0061   -6.5185   -5.2094 H   0  0  0  0  0  0  0  0  0  0  0  0
   17.9221   -7.7070   -5.9601 H   0  0  0  0  0  0  0  0  0  0  0  0
   18.0418   -7.6255   -4.1841 H   0  0  0  0  0  0  0  0  0  0  0  0
   18.1494   -4.7706   -4.0463 H   0  0  0  0  0  0  0  0  0  0  0  0
   15.3625   -4.0202   -4.7631 H   0  0  0  0  0  0  0  0  0  0  0  0
   15.0224   -1.5524   -2.9675 H   0  0  0  0  0  0  0  0  0  0  0  0
   14.4401   -2.3815   -1.5328 H   0  0  0  0  0  0  0  0  0  0  0  0
   13.8271   -2.8279   -3.1368 H   0  0  0  0  0  0  0  0  0  0  0  0
   14.9928   -4.7634   -1.1118 H   0  0  0  0  0  0  0  0  0  0  0  0
   16.0897   -5.6619   -2.1548 H   0  0  0  0  0  0  0  0  0  0  0  0
   14.4734   -5.2568   -2.7230 H   0  0  0  0  0  0  0  0  0  0  0  0
   16.7397   -3.0047   -0.7947 H   0  0  0  0  0  0  0  0  0  0  0  0
   17.3763   -2.0856   -2.1537 H   0  0  0  0  0  0  0  0  0  0  0  0
   17.8732   -3.7564   -1.9039 H   0  0  0  0  0  0  0  0  0  0  0  0
   17.6557   -0.9860   -6.9021 H   0  0  0  0  0  0  0  0  0  0  0  0
   18.6935    1.0204   -6.9126 H   0  0  0  0  0  0  0  0  0  0  0  0
   18.7129    2.5696   -4.3886 H   0  0  0  0  0  0  0  0  0  0  0  0
   19.7018    2.8325   -5.8360 H   0  0  0  0  0  0  0  0  0  0  0  0
   16.2382    3.1397   -4.4507 H   0  0  0  0  0  0  0  0  0  0  0  0
   14.4269    4.3608   -5.5055 H   0  0  0  0  0  0  0  0  0  0  0  0
   12.4282    3.2486   -9.3226 H   0  0  0  0  0  0  0  0  0  0  0  0
   13.2432    2.9314   -7.7927 H   0  0  0  0  0  0  0  0  0  0  0  0
   14.1933    3.0857   -9.2754 H   0  0  0  0  0  0  0  0  0  0  0  0
   12.1037    7.8274   -8.9598 H   0  0  0  0  0  0  0  0  0  0  0  0
   17.0858    5.6342   -8.6257 H   0  0  0  0  0  0  0  0  0  0  0  0
   18.8932    4.3263   -7.6147 H   0  0  0  0  0  0  0  0  0  0  0  0
   15.8102    1.0429   -7.4280 H   0  0  0  0  0  0  0  0  0  0  0  0
   15.7668   -0.5295   -8.2132 H   0  0  0  0  0  0  0  0  0  0  0  0
   14.2572    0.3249   -5.7018 H   0  0  0  0  0  0  0  0  0  0  0  0
   12.5352   -0.3571   -6.8567 H   0  0  0  0  0  0  0  0  0  0  0  0
   14.7199   -2.5245   -6.7367 H   0  0  0  0  0  0  0  0  0  0  0  0
   14.1516   -2.0658   -5.1277 H   0  0  0  0  0  0  0  0  0  0  0  0
  1 34  1  0  0  0  0
  1 35  1  0  0  0  0
  1 36  1  0  0  0  0
  1  2  1  0  0  0  0
  2  3  2  0  0  0  0
  2  4  1  0  0  0  0
  4 37  1  0  0  0  0
  5  4  1  0  0  0  0
  5 38  1  0  0  0  0
  5  6  1  0  0  0  0
  5 10  1  0  0  0  0
  6  7  1  0  0  0  0
  6  8  1  0  0  0  0
  6  9  1  0  0  0  0
  7 39  1  0  0  0  0
  7 40  1  0  0  0  0
  7 41  1  0  0  0  0
  8 42  1  0  0  0  0
  8 43  1  0  0  0  0
  8 44  1  0  0  0  0
  9 45  1  0  0  0  0
  9 46  1  0  0  0  0
  9 47  1  0  0  0  0
 10 11  2  0  0  0  0
 10 12  1  0  0  0  0
 12 33  1  0  0  0  0
 13 12  1  0  0  0  0
 13 30  1  0  0  0  0
 13 48  1  0  0  0  0
 13 14  1  0  0  0  0
 14 15  2  0  0  0  0
 14 16  1  0  0  0  0
 16 49  1  0  0  0  0
 16 17  1  0  0  0  0
 17 50  1  0  0  0  0
 17 51  1  0  0  0  0
 17 18  1  0  0  0  0
 18 19  1  0  0  0  0
 18 29  2  0  0  0  0
 19 52  1  0  0  0  0
 19 20  2  0  0  0  0
 20 53  1  0  0  0  0
 20 21  1  0  0  0  0
 21 28  2  0  0  0  0
 21 22  1  0  0  0  0
 22 23  2  0  0  0  0
 22 27  1  0  0  0  0
 23 24  1  0  0  0  0
 23 25  1  0  0  0  0
 24 54  1  0  0  0  0
 24 55  1  0  0  0  0
 24 56  1  0  0  0  0
 25 26  2  0  0  0  0
 26 57  1  0  0  0  0
 26 27  1  0  0  0  0
 28 58  1  0  0  0  0
 28 29  1  0  0  0  0
 29 59  1  0  0  0  0
 31 30  1  0  0  0  0
 30 60  1  0  0  0  0
 30 61  1  0  0  0  0
 31 33  1  0  0  0  0
 31 62  1  0  0  0  0
 31 32  1  0  0  0  0
 32 63  1  0  0  0  0
 33 64  1  0  0  0  0
 33 65  1  0  0  0  0
M  ZZC   1 c1
M  ZZC   2 c2
M  ZZC   3 o1
M  ZZC   4 n1
M  ZZC   5 c3
M  ZZC   6 c4
M  ZZC   7 c5
M  ZZC   8 c6
M  ZZC   9 c7
M  ZZC  10 c8
M  ZZC  11 o2
M  ZZC  12 n2
M  ZZC  13 c9
M  ZZC  14 c10
M  ZZC  15 o3
M  ZZC  16 n3
M  ZZC  17 c11
M  ZZC  18 c12
M  ZZC  19 c13
M  ZZC  20 c14
M  ZZC  21 c15
M  ZZC  22 c16
M  ZZC  23 c17
M  ZZC  24 c18
M  ZZC  25 n4
M  ZZC  26 c19
M  ZZC  27 s1
M  ZZC  28 c20
M  ZZC  29 c21
M  ZZC  30 c22
M  ZZC  31 c23
M  ZZC  32 o4
M  ZZC  33 c24
M  ZZC  34 h11
M  ZZC  35 h12
M  ZZC  36 h13
M  ZZC  37 h01
M  ZZC  38 h31
M  ZZC  39 h51
M  ZZC  40 h52
M  ZZC  41 h53
M  ZZC  42 h61
M  ZZC  43 h62
M  ZZC  44 h63
M  ZZC  45 h71
M  ZZC  46 h72
M  ZZC  47 h73
M  ZZC  48 h91
M  ZZC  49 h02
M  ZZC  50 h111
M  ZZC  51 h112
M  ZZC  52 h131
M  ZZC  53 h141
M  ZZC  54 h181
M  ZZC  55 h182
M  ZZC  56 h183
M  ZZC  57 h191
M  ZZC  58 h201
M  ZZC  59 h211
M  ZZC  60 h221
M  ZZC  61 h222
M  ZZC  62 h231
M  ZZC  63 h41
M  ZZC  64 h241
M  ZZC  65 h242
M  ZZM   1 1
M  ZZI   1 111
M  ZZM   2 3
M  ZZI   2 121
M  ZZM   3 7
M  ZZI   3 81
M  ZZM   4 10
M  ZZI   4 211
M  ZZM   5 1
M  ZZI   5 113
M  ZZM   6 1
M  ZZI   6 110
M  ZZM   7 1
M  ZZI   7 111
M  ZZM   8 1
M  ZZI   8 111
M  ZZM   9 1
M  ZZI   9 111
M  ZZM  10 3
M  ZZI  10 121
M  ZZM  11 7
M  ZZI  11 81
M  ZZM  12 10
M  ZZI  12 192
M  ZZM  13 1
M  ZZI  13 113
M  ZZM  14 3
M  ZZI  14 121
M  ZZM  15 7
M  ZZI  15 81
M  ZZM  16 10
M  ZZI  16 211
M  ZZM  17 1
M  ZZI  17 112
M  ZZM  18 37
M  ZZI  18 124
M  ZZM  19 37
M  ZZI  19 125
M  ZZM  20 37
M  ZZI  20 125
M  ZZM  21 37
M  ZZI  21 124
M  ZZM  22 63
M  ZZI  22 104
M  ZZM  23 64
M  ZZI  23 105
M  ZZM  24 1
M  ZZI  24 111
M  ZZM  25 66
M  ZZI  25 222
M  ZZM  26 63
M  ZZI  26 104
M  ZZM  27 44
M  ZZI  27 248
M  ZZM  28 37
M  ZZI  28 125
M  ZZM  29 37
M  ZZI  29 125
M  ZZM  30 1
M  ZZI  30 112
M  ZZM  31 1
M  ZZI  31 113
M  ZZM  32 6
M  ZZI  32 60
M  ZZM  33 1
M  ZZI  33 112
M  ZZM  34 5
M  ZZI  34 1
M  ZZM  35 5
M  ZZI  35 1
M  ZZM  36 5
M  ZZI  36 1
M  ZZM  37 28
M  ZZI  37 11
M  ZZM  38 5
M  ZZI  38 1
M  ZZM  39 5
M  ZZI  39 1
M  ZZM  40 5
M  ZZI  40 1
M  ZZM  41 5
M  ZZI  41 1
M  ZZM  42 5
M  ZZI  42 1
M  ZZM  43 5
M  ZZI  43 1
M  ZZM  44 5
M  ZZI  44 1
M  ZZM  45 5
M  ZZI  45 1
M  ZZM  46 5
M  ZZI  46 1
M  ZZM  47 5
M  ZZI  47 1
M  ZZM  48 5
M  ZZI  48 1
M  ZZM  49 28
M  ZZI  49 11
M  ZZM  50 5
M  ZZI  50 1
M  ZZM  51 5
M  ZZI  51 1
M  ZZM  52 5
M  ZZI  52 1
M  ZZM  53 5
M  ZZI  53 1
M  ZZM  54 5
M  ZZI  54 1
M  ZZM  55 5
M  ZZI  55 1
M  ZZM  56 5
M  ZZI  56 1
M  ZZM  57 5
M  ZZI  57 1
M  ZZM  58 5
M  ZZI  58 1
M  ZZM  59 5
M  ZZI  59 1
M  ZZM  60 5
M  ZZI  60 1
M  ZZM  61 5
M  ZZI  61 1
M  ZZM  62 5
M  ZZI  62 1
M  ZZM  63 21
M  ZZI  63 20
M  ZZM  64 5
M  ZZI  64 1
M  ZZM  65 5
M  ZZI  65 1
M  END
> <IX>
1

> <NAME>
VHL_6UT0_3.pdb

> <Score>
-7.028965

> <Natom>
65

> <Nflex>
8

> <Hbond>
-6.219872

> <Hphob>
-6.774183

> <VwInt>
-28.205003

> <Dsolv>
21.694989

> <SolEl>
24.022886

> <Eintl>
7.541116

> <RecConf>
ND

> <projPath>
VHL_maps/

> <NAME_>
VHL_6UT0_3.pdb

$$$$
