VHL_5LLI_3.pdb
  MOLSOFT 04032206413D

 65 67  0  0  1  0  0  0  0  0999 V2000
   15.3340   -5.3160   -3.3215 O   0  0  0  0  0  0  0  0  0  0  0  0
   16.4424   -5.1179   -3.7945 C   0  0  0  0  0  0  0  0  0  0  0  0
   17.0372   -3.8764   -3.8671 N   0  0  0  0  0  0  0  0  0  0  0  0
   16.3025   -2.6464   -3.5580 C   0  0  1  0  0  0  0  0  0  0  0  0
   16.5766   -2.0750   -2.1338 C   0  0  0  0  0  0  0  0  0  0  0  0
   16.3303   -3.1558   -1.0676 C   0  0  0  0  0  0  0  0  0  0  0  0
   18.0133   -1.5563   -1.9718 C   0  0  0  0  0  0  0  0  0  0  0  0
   15.6098   -0.9151   -1.8480 C   0  0  0  0  0  0  0  0  0  0  0  0
   16.6639   -1.6833   -4.7067 C   0  0  0  0  0  0  0  0  0  0  0  0
   17.8340   -1.4478   -4.9853 O   0  0  0  0  0  0  0  0  0  0  0  0
   15.6079   -1.1435   -5.4399 N   0  0  0  0  0  0  0  0  0  0  0  0
   15.8490   -0.3694   -6.6486 C   0  0  2  0  0  0  0  0  0  0  0  0
   16.1883    1.0859   -6.3159 C   0  0  0  0  0  0  0  0  0  0  0  0
   15.5108    1.7707   -5.5610 O   0  0  0  0  0  0  0  0  0  0  0  0
   17.3187    1.5508   -6.9600 N   0  0  0  0  0  0  0  0  0  0  0  0
   17.8030    2.9049   -6.7495 C   0  0  0  0  0  0  0  0  0  0  0  0
   19.2375    3.1260   -7.1680 C   0  0  0  0  0  0  0  0  0  0  0  0
   19.6808    4.4027   -7.5070 C   0  0  0  0  0  0  0  0  0  0  0  0
   21.0066    4.6381   -7.8425 C   0  0  0  0  0  0  0  0  0  0  0  0
   21.9272    3.5979   -7.8463 C   0  0  0  0  0  0  0  0  0  0  0  0
   23.3257    3.8172   -8.1780 C   0  0  0  0  0  0  0  0  0  0  0  0
   24.3899    4.2051   -7.3768 C   0  0  0  0  0  0  0  0  0  0  0  0
   24.3399    4.5414   -5.9361 C   0  0  0  0  0  0  0  0  0  0  0  0
   25.6137    4.2514   -8.0140 N   0  0  0  0  0  0  0  0  0  0  0  0
   25.4652    3.9317   -9.2798 C   0  0  0  0  0  0  0  0  0  0  0  0
   23.8775    3.5610   -9.7844 S   0  0  0  0  0  0  0  0  0  0  0  0
   21.4880    2.3284   -7.5042 C   0  0  0  0  0  0  0  0  0  0  0  0
   20.1711    2.0961   -7.1624 C   0  0  0  0  0  0  0  0  0  0  0  0
   14.5394   -0.4640   -7.4117 C   0  0  0  0  0  0  0  0  0  0  0  0
   13.4796   -0.5917   -6.3275 C   0  0  1  0  0  0  0  0  0  0  0  0
   12.3459   -1.3198   -6.7983 O   0  0  0  0  0  0  0  0  0  0  0  0
   14.1886   -1.3722   -5.2325 C   0  0  0  0  0  0  0  0  0  0  0  0
   17.2758   -6.2294   -4.3778 C   0  0  0  0  0  0  0  0  0  0  0  0
   17.9851   -3.7996   -4.2252 H   0  0  0  0  0  0  0  0  0  0  0  0
   15.2421   -2.9029   -3.6152 H   0  0  0  0  0  0  0  0  0  0  0  0
   15.3226   -3.5767   -1.1476 H   0  0  0  0  0  0  0  0  0  0  0  0
   16.4292   -2.7496   -0.0557 H   0  0  0  0  0  0  0  0  0  0  0  0
   17.0451   -3.9800   -1.1483 H   0  0  0  0  0  0  0  0  0  0  0  0
   18.1985   -0.6628   -2.5750 H   0  0  0  0  0  0  0  0  0  0  0  0
   18.7454   -2.3111   -2.2623 H   0  0  0  0  0  0  0  0  0  0  0  0
   18.2246   -1.2814   -0.9336 H   0  0  0  0  0  0  0  0  0  0  0  0
   14.5639   -1.2310   -1.9116 H   0  0  0  0  0  0  0  0  0  0  0  0
   15.7425   -0.0979   -2.5645 H   0  0  0  0  0  0  0  0  0  0  0  0
   15.7712   -0.4969   -0.8487 H   0  0  0  0  0  0  0  0  0  0  0  0
   16.6690   -0.8206   -7.2193 H   0  0  0  0  0  0  0  0  0  0  0  0
   17.8287    0.9288   -7.5813 H   0  0  0  0  0  0  0  0  0  0  0  0
   17.1390    3.5626   -7.3213 H   0  0  0  0  0  0  0  0  0  0  0  0
   17.6917    3.1576   -5.6894 H   0  0  0  0  0  0  0  0  0  0  0  0
   18.9861    5.2378   -7.5072 H   0  0  0  0  0  0  0  0  0  0  0  0
   21.3179    5.6455   -8.1025 H   0  0  0  0  0  0  0  0  0  0  0  0
   25.3127    4.8922   -5.5796 H   0  0  0  0  0  0  0  0  0  0  0  0
   24.0667    3.6648   -5.3447 H   0  0  0  0  0  0  0  0  0  0  0  0
   23.6077    5.3309   -5.7439 H   0  0  0  0  0  0  0  0  0  0  0  0
   26.2958    3.9041   -9.9705 H   0  0  0  0  0  0  0  0  0  0  0  0
   22.1766    1.4925   -7.5092 H   0  0  0  0  0  0  0  0  0  0  0  0
   19.8824    1.0866   -6.8920 H   0  0  0  0  0  0  0  0  0  0  0  0
   14.3524    0.3882   -8.0737 H   0  0  0  0  0  0  0  0  0  0  0  0
   14.5476   -1.3667   -8.0314 H   0  0  0  0  0  0  0  0  0  0  0  0
   13.1521    0.3884   -5.9630 H   0  0  0  0  0  0  0  0  0  0  0  0
   11.9025   -0.7857   -7.4829 H   0  0  0  0  0  0  0  0  0  0  0  0
   13.9800   -2.4447   -5.2953 H   0  0  0  0  0  0  0  0  0  0  0  0
   13.8941   -1.0293   -4.2367 H   0  0  0  0  0  0  0  0  0  0  0  0
   16.7302   -6.6835   -5.2105 H   0  0  0  0  0  0  0  0  0  0  0  0
   17.4620   -6.9858   -3.6124 H   0  0  0  0  0  0  0  0  0  0  0  0
   18.2370   -5.8655   -4.7521 H   0  0  0  0  0  0  0  0  0  0  0  0
  1  2  2  0  0  0  0
  2  3  1  0  0  0  0
  2 33  1  0  0  0  0
  4  3  1  0  0  0  0
  3 34  1  0  0  0  0
  4  5  1  0  0  0  0
  4 35  1  0  0  0  0
  4  9  1  0  0  0  0
  5  6  1  0  0  0  0
  5  7  1  0  0  0  0
  5  8  1  0  0  0  0
  6 36  1  0  0  0  0
  6 37  1  0  0  0  0
  6 38  1  0  0  0  0
  7 39  1  0  0  0  0
  7 40  1  0  0  0  0
  7 41  1  0  0  0  0
  8 42  1  0  0  0  0
  8 43  1  0  0  0  0
  8 44  1  0  0  0  0
  9 10  2  0  0  0  0
  9 11  1  0  0  0  0
 11 32  1  0  0  0  0
 12 11  1  0  0  0  0
 12 29  1  0  0  0  0
 12 45  1  0  0  0  0
 12 13  1  0  0  0  0
 13 14  2  0  0  0  0
 13 15  1  0  0  0  0
 15 46  1  0  0  0  0
 15 16  1  0  0  0  0
 16 47  1  0  0  0  0
 16 48  1  0  0  0  0
 16 17  1  0  0  0  0
 17 18  1  0  0  0  0
 17 28  2  0  0  0  0
 18 49  1  0  0  0  0
 18 19  2  0  0  0  0
 19 50  1  0  0  0  0
 19 20  1  0  0  0  0
 20 27  2  0  0  0  0
 20 21  1  0  0  0  0
 21 22  2  0  0  0  0
 21 26  1  0  0  0  0
 22 23  1  0  0  0  0
 22 24  1  0  0  0  0
 23 51  1  0  0  0  0
 23 52  1  0  0  0  0
 23 53  1  0  0  0  0
 24 25  2  0  0  0  0
 25 54  1  0  0  0  0
 25 26  1  0  0  0  0
 27 55  1  0  0  0  0
 27 28  1  0  0  0  0
 28 56  1  0  0  0  0
 30 29  1  0  0  0  0
 29 57  1  0  0  0  0
 29 58  1  0  0  0  0
 30 32  1  0  0  0  0
 30 59  1  0  0  0  0
 30 31  1  0  0  0  0
 31 60  1  0  0  0  0
 32 61  1  0  0  0  0
 32 62  1  0  0  0  0
 33 63  1  0  0  0  0
 33 64  1  0  0  0  0
 33 65  1  0  0  0  0
M  ZZC   1 o1
M  ZZC   2 c1
M  ZZC   3 n1
M  ZZC   4 c2
M  ZZC   5 c3
M  ZZC   6 c4
M  ZZC   7 c5
M  ZZC   8 c6
M  ZZC   9 c7
M  ZZC  10 o2
M  ZZC  11 n2
M  ZZC  12 c8
M  ZZC  13 c9
M  ZZC  14 o3
M  ZZC  15 n3
M  ZZC  16 c10
M  ZZC  17 c11
M  ZZC  18 c12
M  ZZC  19 c13
M  ZZC  20 c14
M  ZZC  21 c15
M  ZZC  22 c16
M  ZZC  23 c17
M  ZZC  24 n4
M  ZZC  25 c18
M  ZZC  26 s1
M  ZZC  27 c19
M  ZZC  28 c20
M  ZZC  29 c21
M  ZZC  30 c22
M  ZZC  31 o4
M  ZZC  32 c23
M  ZZC  33 c24
M  ZZC  34 h11
M  ZZC  35 h21
M  ZZC  36 h41
M  ZZC  37 h42
M  ZZC  38 h43
M  ZZC  39 h51
M  ZZC  40 h52
M  ZZC  41 h53
M  ZZC  42 h61
M  ZZC  43 h62
M  ZZC  44 h63
M  ZZC  45 h81
M  ZZC  46 h31
M  ZZC  47 h101
M  ZZC  48 h102
M  ZZC  49 h121
M  ZZC  50 h131
M  ZZC  51 h171
M  ZZC  52 h172
M  ZZC  53 h173
M  ZZC  54 h181
M  ZZC  55 h191
M  ZZC  56 h201
M  ZZC  57 h211
M  ZZC  58 h212
M  ZZC  59 h221
M  ZZC  60 h01
M  ZZC  61 h231
M  ZZC  62 h232
M  ZZC  63 h241
M  ZZC  64 h242
M  ZZC  65 h243
M  ZZM   1 7
M  ZZI   1 81
M  ZZM   2 3
M  ZZI   2 121
M  ZZM   3 10
M  ZZI   3 211
M  ZZM   4 1
M  ZZI   4 113
M  ZZM   5 1
M  ZZI   5 110
M  ZZM   6 1
M  ZZI   6 111
M  ZZM   7 1
M  ZZI   7 111
M  ZZM   8 1
M  ZZI   8 111
M  ZZM   9 3
M  ZZI   9 121
M  ZZM  10 7
M  ZZI  10 81
M  ZZM  11 10
M  ZZI  11 192
M  ZZM  12 1
M  ZZI  12 113
M  ZZM  13 3
M  ZZI  13 121
M  ZZM  14 7
M  ZZI  14 81
M  ZZM  15 10
M  ZZI  15 211
M  ZZM  16 1
M  ZZI  16 112
M  ZZM  17 37
M  ZZI  17 124
M  ZZM  18 37
M  ZZI  18 125
M  ZZM  19 37
M  ZZI  19 125
M  ZZM  20 37
M  ZZI  20 124
M  ZZM  21 63
M  ZZI  21 104
M  ZZM  22 64
M  ZZI  22 105
M  ZZM  23 1
M  ZZI  23 111
M  ZZM  24 66
M  ZZI  24 222
M  ZZM  25 63
M  ZZI  25 104
M  ZZM  26 44
M  ZZI  26 248
M  ZZM  27 37
M  ZZI  27 125
M  ZZM  28 37
M  ZZI  28 125
M  ZZM  29 1
M  ZZI  29 112
M  ZZM  30 1
M  ZZI  30 113
M  ZZM  31 6
M  ZZI  31 60
M  ZZM  32 1
M  ZZI  32 112
M  ZZM  33 1
M  ZZI  33 111
M  ZZM  34 28
M  ZZI  34 11
M  ZZM  35 5
M  ZZI  35 1
M  ZZM  36 5
M  ZZI  36 1
M  ZZM  37 5
M  ZZI  37 1
M  ZZM  38 5
M  ZZI  38 1
M  ZZM  39 5
M  ZZI  39 1
M  ZZM  40 5
M  ZZI  40 1
M  ZZM  41 5
M  ZZI  41 1
M  ZZM  42 5
M  ZZI  42 1
M  ZZM  43 5
M  ZZI  43 1
M  ZZM  44 5
M  ZZI  44 1
M  ZZM  45 5
M  ZZI  45 1
M  ZZM  46 28
M  ZZI  46 11
M  ZZM  47 5
M  ZZI  47 1
M  ZZM  48 5
M  ZZI  48 1
M  ZZM  49 5
M  ZZI  49 1
M  ZZM  50 5
M  ZZI  50 1
M  ZZM  51 5
M  ZZI  51 1
M  ZZM  52 5
M  ZZI  52 1
M  ZZM  53 5
M  ZZI  53 1
M  ZZM  54 5
M  ZZI  54 1
M  ZZM  55 5
M  ZZI  55 1
M  ZZM  56 5
M  ZZI  56 1
M  ZZM  57 5
M  ZZI  57 1
M  ZZM  58 5
M  ZZI  58 1
M  ZZM  59 5
M  ZZI  59 1
M  ZZM  60 21
M  ZZI  60 20
M  ZZM  61 5
M  ZZI  61 1
M  ZZM  62 5
M  ZZI  62 1
M  ZZM  63 5
M  ZZI  63 1
M  ZZM  64 5
M  ZZI  64 1
M  ZZM  65 5
M  ZZI  65 1
M  END
> <IX>
1

> <NAME>
VHL_5LLI_3.pdb

> <Score>
-16.191362

> <Natom>
65

> <Nflex>
8

> <Hbond>
-4.884553

> <Hphob>
-6.281361

> <VwInt>
-32.193795

> <Dsolv>
17.49925

> <SolEl>
18.187712

> <Eintl>
4.400893

> <RecConf>
ND

> <projPath>
VHL_maps/

> <NAME_>
VHL_5LLI_3.pdb

$$$$
