VHL_5T8E_30.pdb
  MOLSOFT 04032206423D

 64 67  0  0  1  0  0  0  0  0999 V2000
   14.6184    2.3347   -3.2770 C   0  0  0  0  0  0  0  0  0  0  0  0
   14.9782    1.2375   -4.1563 N   0  0  0  0  0  0  0  0  0  0  0  0
   14.0731    0.3023   -4.6205 C   0  0  0  0  0  0  0  0  0  0  0  0
   12.8864    0.3020   -4.3284 O   0  0  0  0  0  0  0  0  0  0  0  0
   14.6600   -0.7479   -5.5716 C   0  0  2  0  0  0  0  0  0  0  0  0
   16.1093   -0.6459   -5.7415 N   0  0  0  0  0  0  0  0  0  0  0  0
   17.1126   -1.1685   -4.9206 C   0  0  0  0  0  0  0  0  0  0  0  0
   18.2927   -1.0457   -5.2200 O   0  0  0  0  0  0  0  0  0  0  0  0
   16.6782   -1.9111   -3.6511 C   0  0  2  0  0  0  0  0  0  0  0  0
   17.6440   -1.6454   -2.4691 C   0  0  0  0  0  0  0  0  0  0  0  0
   17.2379   -2.4180   -1.2097 C   0  0  0  0  0  0  0  0  0  0  0  0
   17.7214   -0.1557   -2.1280 C   0  0  0  0  0  0  0  0  0  0  0  0
   16.6164   -3.3667   -3.9849 C   0  0  0  0  0  0  0  0  0  0  0  0
   15.5979   -4.0708   -3.4161 O   0  0  0  0  0  0  0  0  0  0  0  0
   15.7157   -5.4169   -3.7671 N   0  0  0  0  0  0  0  0  0  0  0  0
   16.7969   -5.4921   -4.5531 C   0  0  0  0  0  0  0  0  0  0  0  0
   17.2359   -6.7928   -5.1050 C   0  0  0  0  0  0  0  0  0  0  0  0
   17.3866   -4.2228   -4.7365 C   0  0  0  0  0  0  0  0  0  0  0  0
   16.4478   -0.0627   -7.0290 C   0  0  0  0  0  0  0  0  0  0  0  0
   15.1259    0.3252   -7.6714 C   0  0  2  0  0  0  0  0  0  0  0  0
   14.8369    1.7032   -7.4339 O   0  0  0  0  0  0  0  0  0  0  0  0
   14.1119   -0.5715   -6.9815 C   0  0  0  0  0  0  0  0  0  0  0  0
   14.4490    3.6446   -4.0063 C   0  0  0  0  0  0  0  0  0  0  0  0
   15.2030    3.9593   -5.1332 C   0  0  0  0  0  0  0  0  0  0  0  0
   15.0253    5.1565   -5.7998 C   0  0  0  0  0  0  0  0  0  0  0  0
   14.1089    6.0976   -5.3473 C   0  0  0  0  0  0  0  0  0  0  0  0
   13.9148    7.3407   -6.0848 C   0  0  0  0  0  0  0  0  0  0  0  0
   13.6690    7.5633   -7.4356 C   0  0  0  0  0  0  0  0  0  0  0  0
   13.4931    6.5458   -8.4990 C   0  0  0  0  0  0  0  0  0  0  0  0
   13.5945    8.8905   -7.8041 N   0  0  0  0  0  0  0  0  0  0  0  0
   13.7865    9.6537   -6.7521 C   0  0  0  0  0  0  0  0  0  0  0  0
   14.0284    8.8505   -5.2673 S   0  0  0  0  0  0  0  0  0  0  0  0
   13.3957    5.8144   -4.1844 C   0  0  0  0  0  0  0  0  0  0  0  0
   13.5664    4.6060   -3.5247 C   0  0  0  0  0  0  0  0  0  0  0  0
   13.6971    2.0733   -2.7451 H   0  0  0  0  0  0  0  0  0  0  0  0
   15.4204    2.4357   -2.5390 H   0  0  0  0  0  0  0  0  0  0  0  0
   15.9349    1.1851   -4.4887 H   0  0  0  0  0  0  0  0  0  0  0  0
   14.3971   -1.7331   -5.1725 H   0  0  0  0  0  0  0  0  0  0  0  0
   15.6829   -1.5717   -3.3512 H   0  0  0  0  0  0  0  0  0  0  0  0
   18.6513   -1.9745   -2.7380 H   0  0  0  0  0  0  0  0  0  0  0  0
   17.8924   -2.1680   -0.3692 H   0  0  0  0  0  0  0  0  0  0  0  0
   17.3128   -3.4992   -1.3548 H   0  0  0  0  0  0  0  0  0  0  0  0
   16.2099   -2.1881   -0.9119 H   0  0  0  0  0  0  0  0  0  0  0  0
   18.4114    0.0408   -1.3029 H   0  0  0  0  0  0  0  0  0  0  0  0
   16.7418    0.2236   -1.8215 H   0  0  0  0  0  0  0  0  0  0  0  0
   18.0502    0.4323   -2.9902 H   0  0  0  0  0  0  0  0  0  0  0  0
   16.4750   -7.2065   -5.7736 H   0  0  0  0  0  0  0  0  0  0  0  0
   17.4192   -7.5140   -4.3030 H   0  0  0  0  0  0  0  0  0  0  0  0
   18.1631   -6.6874   -5.6761 H   0  0  0  0  0  0  0  0  0  0  0  0
   18.2684   -3.9754   -5.3107 H   0  0  0  0  0  0  0  0  0  0  0  0
   17.1328    0.7804   -6.8875 H   0  0  0  0  0  0  0  0  0  0  0  0
   16.9479   -0.8374   -7.6183 H   0  0  0  0  0  0  0  0  0  0  0  0
   15.1541    0.1779   -8.7530 H   0  0  0  0  0  0  0  0  0  0  0  0
   13.9087    1.8665   -7.6826 H   0  0  0  0  0  0  0  0  0  0  0  0
   14.1164   -1.5450   -7.4801 H   0  0  0  0  0  0  0  0  0  0  0  0
   13.0921   -0.1716   -7.0029 H   0  0  0  0  0  0  0  0  0  0  0  0
   15.9358    3.2612   -5.5246 H   0  0  0  0  0  0  0  0  0  0  0  0
   15.6220    5.3500   -6.6860 H   0  0  0  0  0  0  0  0  0  0  0  0
   14.4602    6.1648   -8.8374 H   0  0  0  0  0  0  0  0  0  0  0  0
   12.9813    6.9620   -9.3708 H   0  0  0  0  0  0  0  0  0  0  0  0
   12.9112    5.6969   -8.1291 H   0  0  0  0  0  0  0  0  0  0  0  0
   13.7947   10.7323   -6.8113 H   0  0  0  0  0  0  0  0  0  0  0  0
   12.6717    6.5246   -3.7957 H   0  0  0  0  0  0  0  0  0  0  0  0
   12.9871    4.4110   -2.6266 H   0  0  0  0  0  0  0  0  0  0  0  0
  1 35  1  0  0  0  0
  1 36  1  0  0  0  0
  1 23  1  0  0  0  0
  1  2  1  0  0  0  0
  2 37  1  0  0  0  0
  2  3  1  0  0  0  0
  3  4  2  0  0  0  0
  5  3  1  0  0  0  0
  5 38  1  0  0  0  0
  5 22  1  0  0  0  0
  5  6  1  0  0  0  0
  6 19  1  0  0  0  0
  6  7  1  0  0  0  0
  7  8  2  0  0  0  0
  9  7  1  0  0  0  0
  9 39  1  0  0  0  0
  9 10  1  0  0  0  0
  9 13  1  0  0  0  0
 10 40  1  0  0  0  0
 10 12  1  0  0  0  0
 10 11  1  0  0  0  0
 11 41  1  0  0  0  0
 11 42  1  0  0  0  0
 11 43  1  0  0  0  0
 12 44  1  0  0  0  0
 12 45  1  0  0  0  0
 12 46  1  0  0  0  0
 13 18  2  0  0  0  0
 13 14  1  0  0  0  0
 14 15  1  0  0  0  0
 15 16  2  0  0  0  0
 16 18  1  0  0  0  0
 16 17  1  0  0  0  0
 17 47  1  0  0  0  0
 17 48  1  0  0  0  0
 17 49  1  0  0  0  0
 18 50  1  0  0  0  0
 20 19  1  0  0  0  0
 19 51  1  0  0  0  0
 19 52  1  0  0  0  0
 20 22  1  0  0  0  0
 20 53  1  0  0  0  0
 20 21  1  0  0  0  0
 21 54  1  0  0  0  0
 22 55  1  0  0  0  0
 22 56  1  0  0  0  0
 23 24  1  0  0  0  0
 23 34  2  0  0  0  0
 24 57  1  0  0  0  0
 24 25  2  0  0  0  0
 25 58  1  0  0  0  0
 25 26  1  0  0  0  0
 26 33  2  0  0  0  0
 26 27  1  0  0  0  0
 27 28  2  0  0  0  0
 27 32  1  0  0  0  0
 28 29  1  0  0  0  0
 28 30  1  0  0  0  0
 29 59  1  0  0  0  0
 29 60  1  0  0  0  0
 29 61  1  0  0  0  0
 30 31  2  0  0  0  0
 31 62  1  0  0  0  0
 31 32  1  0  0  0  0
 33 63  1  0  0  0  0
 33 34  1  0  0  0  0
 34 64  1  0  0  0  0
M  ZZC   1 c1
M  ZZC   2 n1
M  ZZC   3 c2
M  ZZC   4 o1
M  ZZC   5 c3
M  ZZC   6 n2
M  ZZC   7 c4
M  ZZC   8 o2
M  ZZC   9 c5
M  ZZC  10 c6
M  ZZC  11 c7
M  ZZC  12 c8
M  ZZC  13 c9
M  ZZC  14 o3
M  ZZC  15 n3
M  ZZC  16 c10
M  ZZC  17 c11
M  ZZC  18 c12
M  ZZC  19 c13
M  ZZC  20 c14
M  ZZC  21 o4
M  ZZC  22 c15
M  ZZC  23 c16
M  ZZC  24 c17
M  ZZC  25 c18
M  ZZC  26 c19
M  ZZC  27 c20
M  ZZC  28 c21
M  ZZC  29 c22
M  ZZC  30 n4
M  ZZC  31 c23
M  ZZC  32 s1
M  ZZC  33 c24
M  ZZC  34 c25
M  ZZC  35 h11
M  ZZC  36 h12
M  ZZC  37 h01
M  ZZC  38 h31
M  ZZC  39 h51
M  ZZC  40 h61
M  ZZC  41 h71
M  ZZC  42 h72
M  ZZC  43 h73
M  ZZC  44 h81
M  ZZC  45 h82
M  ZZC  46 h83
M  ZZC  47 h111
M  ZZC  48 h112
M  ZZC  49 h113
M  ZZC  50 h121
M  ZZC  51 h131
M  ZZC  52 h132
M  ZZC  53 h141
M  ZZC  54 h41
M  ZZC  55 h151
M  ZZC  56 h152
M  ZZC  57 h171
M  ZZC  58 h181
M  ZZC  59 h221
M  ZZC  60 h222
M  ZZC  61 h223
M  ZZC  62 h231
M  ZZC  63 h241
M  ZZC  64 h251
M  ZZM   1 1
M  ZZI   1 112
M  ZZM   2 10
M  ZZI   2 211
M  ZZM   3 3
M  ZZI   3 121
M  ZZM   4 7
M  ZZI   4 81
M  ZZM   5 1
M  ZZI   5 113
M  ZZM   6 10
M  ZZI   6 192
M  ZZM   7 3
M  ZZI   7 121
M  ZZM   8 7
M  ZZI   8 81
M  ZZM   9 1
M  ZZI   9 113
M  ZZM  10 1
M  ZZI  10 113
M  ZZM  11 1
M  ZZI  11 111
M  ZZM  12 1
M  ZZI  12 111
M  ZZM  13 63
M  ZZI  13 104
M  ZZM  14 59
M  ZZI  14 56
M  ZZM  15 65
M  ZZI  15 207
M  ZZM  16 64
M  ZZI  16 105
M  ZZM  17 1
M  ZZI  17 111
M  ZZM  18 64
M  ZZI  18 105
M  ZZM  19 1
M  ZZI  19 112
M  ZZM  20 1
M  ZZI  20 113
M  ZZM  21 6
M  ZZI  21 60
M  ZZM  22 1
M  ZZI  22 112
M  ZZM  23 37
M  ZZI  23 124
M  ZZM  24 37
M  ZZI  24 125
M  ZZM  25 37
M  ZZI  25 125
M  ZZM  26 37
M  ZZI  26 124
M  ZZM  27 63
M  ZZI  27 104
M  ZZM  28 64
M  ZZI  28 105
M  ZZM  29 1
M  ZZI  29 111
M  ZZM  30 66
M  ZZI  30 222
M  ZZM  31 63
M  ZZI  31 104
M  ZZM  32 44
M  ZZI  32 248
M  ZZM  33 37
M  ZZI  33 125
M  ZZM  34 37
M  ZZI  34 125
M  ZZM  35 5
M  ZZI  35 1
M  ZZM  36 5
M  ZZI  36 1
M  ZZM  37 28
M  ZZI  37 11
M  ZZM  38 5
M  ZZI  38 1
M  ZZM  39 5
M  ZZI  39 1
M  ZZM  40 5
M  ZZI  40 1
M  ZZM  41 5
M  ZZI  41 1
M  ZZM  42 5
M  ZZI  42 1
M  ZZM  43 5
M  ZZI  43 1
M  ZZM  44 5
M  ZZI  44 1
M  ZZM  45 5
M  ZZI  45 1
M  ZZM  46 5
M  ZZI  46 1
M  ZZM  47 5
M  ZZI  47 1
M  ZZM  48 5
M  ZZI  48 1
M  ZZM  49 5
M  ZZI  49 1
M  ZZM  50 5
M  ZZI  50 1
M  ZZM  51 5
M  ZZI  51 1
M  ZZM  52 5
M  ZZI  52 1
M  ZZM  53 5
M  ZZI  53 1
M  ZZM  54 21
M  ZZI  54 20
M  ZZM  55 5
M  ZZI  55 1
M  ZZM  56 5
M  ZZI  56 1
M  ZZM  57 5
M  ZZI  57 1
M  ZZM  58 5
M  ZZI  58 1
M  ZZM  59 5
M  ZZI  59 1
M  ZZM  60 5
M  ZZI  60 1
M  ZZM  61 5
M  ZZI  61 1
M  ZZM  62 5
M  ZZI  62 1
M  ZZM  63 5
M  ZZI  63 1
M  ZZM  64 5
M  ZZI  64 1
M  END
> <IX>
1

> <NAME>
VHL_5T8E_30.pdb

> <Score>
-1.360044

> <Natom>
64

> <Nflex>
8

> <Hbond>
-1.92486

> <Hphob>
-6.565607

> <VwInt>
-31.775688

> <Dsolv>
23.129913

> <SolEl>
25.591804

> <Eintl>
1.077452

> <RecConf>
ND

> <projPath>
VHL_maps/

> <NAME_>
VHL_5T8E_30.pdb

$$$$
