VHL_4QNQ_5.pdb
  MOLSOFT 04032206393D

 68 70  0  0  1  0  0  0  0  0999 V2000
   18.0808   -6.8576   -5.1182 C   0  0  0  0  0  0  0  0  0  0  0  0
   16.8817   -5.9584   -4.9982 C   0  0  0  0  0  0  0  0  0  0  0  0
   15.8124   -6.2741   -5.4906 O   0  0  0  0  0  0  0  0  0  0  0  0
   17.1196   -4.8134   -4.2646 N   0  0  0  0  0  0  0  0  0  0  0  0
   16.1265   -3.7553   -4.0162 C   0  0  1  0  0  0  0  0  0  0  0  0
   15.8485   -3.5582   -2.4976 C   0  0  0  0  0  0  0  0  0  0  0  0
   15.3482   -4.8935   -1.9422 C   0  0  0  0  0  0  0  0  0  0  0  0
   14.7499   -2.5275   -2.2159 C   0  0  0  0  0  0  0  0  0  0  0  0
   17.0973   -3.1136   -1.7232 C   0  0  0  0  0  0  0  0  0  0  0  0
   16.6814   -2.5332   -4.7671 C   0  0  0  0  0  0  0  0  0  0  0  0
   17.8853   -2.3059   -4.7945 O   0  0  0  0  0  0  0  0  0  0  0  0
   15.7772   -1.7144   -5.4448 N   0  0  0  0  0  0  0  0  0  0  0  0
   16.2537   -0.7679   -6.4348 C   0  0  2  0  0  0  0  0  0  0  0  0
   16.7634    0.5108   -5.7703 C   0  0  0  0  0  0  0  0  0  0  0  0
   16.2954    0.9503   -4.7282 O   0  0  0  0  0  0  0  0  0  0  0  0
   17.7555    1.1446   -6.4980 N   0  0  0  0  0  0  0  0  0  0  0  0
   18.3355    2.4054   -6.0643 C   0  0  1  0  0  0  0  0  0  0  0  0
   19.6223    2.7161   -6.8249 C   0  0  0  0  0  0  0  0  0  0  0  0
   17.3419    3.5428   -6.1820 C   0  0  0  0  0  0  0  0  0  0  0  0
   17.3546    4.5737   -5.2502 C   0  0  0  0  0  0  0  0  0  0  0  0
   16.3901    5.5641   -5.2763 C   0  0  0  0  0  0  0  0  0  0  0  0
   15.3791    5.5542   -6.2335 C   0  0  0  0  0  0  0  0  0  0  0  0
   14.2952    6.5278   -6.1934 C   0  0  0  0  0  0  0  0  0  0  0  0
   13.6971    7.2848   -7.1954 C   0  0  0  0  0  0  0  0  0  0  0  0
   14.0592    7.3359   -8.6310 C   0  0  0  0  0  0  0  0  0  0  0  0
   12.6409    8.0689   -6.7787 N   0  0  0  0  0  0  0  0  0  0  0  0
   12.4344    7.8812   -5.4951 C   0  0  0  0  0  0  0  0  0  0  0  0
   13.5014    6.8289   -4.6950 S   0  0  0  0  0  0  0  0  0  0  0  0
   15.4007    4.5588   -7.2038 C   0  0  0  0  0  0  0  0  0  0  0  0
   16.3723    3.5750   -7.1826 C   0  0  0  0  0  0  0  0  0  0  0  0
   15.0453   -0.5198   -7.3251 C   0  0  0  0  0  0  0  0  0  0  0  0
   13.8567   -0.6744   -6.3877 C   0  0  1  0  0  0  0  0  0  0  0  0
   12.7158   -1.2061   -7.0581 O   0  0  0  0  0  0  0  0  0  0  0  0
   14.3309   -1.6569   -5.3300 C   0  0  0  0  0  0  0  0  0  0  0  0
   19.0014   -6.2730   -5.2087 H   0  0  0  0  0  0  0  0  0  0  0  0
   17.9794   -7.4826   -6.0104 H   0  0  0  0  0  0  0  0  0  0  0  0
   18.1335   -7.4983   -4.2350 H   0  0  0  0  0  0  0  0  0  0  0  0
   18.0766   -4.6311   -3.9823 H   0  0  0  0  0  0  0  0  0  0  0  0
   15.1978   -4.0692   -4.4918 H   0  0  0  0  0  0  0  0  0  0  0  0
   15.0848   -4.8008   -0.8873 H   0  0  0  0  0  0  0  0  0  0  0  0
   16.1028   -5.6763   -2.0355 H   0  0  0  0  0  0  0  0  0  0  0  0
   14.4555   -5.2414   -2.4721 H   0  0  0  0  0  0  0  0  0  0  0  0
   15.0629   -1.5177   -2.4947 H   0  0  0  0  0  0  0  0  0  0  0  0
   14.5037   -2.4888   -1.1495 H   0  0  0  0  0  0  0  0  0  0  0  0
   13.8237   -2.7761   -2.7427 H   0  0  0  0  0  0  0  0  0  0  0  0
   16.8943   -3.0330   -0.6504 H   0  0  0  0  0  0  0  0  0  0  0  0
   17.4572   -2.1360   -2.0588 H   0  0  0  0  0  0  0  0  0  0  0  0
   17.9160   -3.8198   -1.8368 H   0  0  0  0  0  0  0  0  0  0  0  0
   17.0695   -1.2172   -7.0066 H   0  0  0  0  0  0  0  0  0  0  0  0
   18.1249    0.6987   -7.3315 H   0  0  0  0  0  0  0  0  0  0  0  0
   18.5849    2.2688   -5.0052 H   0  0  0  0  0  0  0  0  0  0  0  0
   20.1195    3.6012   -6.4162 H   0  0  0  0  0  0  0  0  0  0  0  0
   19.4311    2.9116   -7.8823 H   0  0  0  0  0  0  0  0  0  0  0  0
   20.3249    1.8795   -6.7690 H   0  0  0  0  0  0  0  0  0  0  0  0
   18.1057    4.5935   -4.4658 H   0  0  0  0  0  0  0  0  0  0  0  0
   16.4256    6.3377   -4.5150 H   0  0  0  0  0  0  0  0  0  0  0  0
   13.8197    8.3151   -9.0533 H   0  0  0  0  0  0  0  0  0  0  0  0
   13.5006    6.5810   -9.1922 H   0  0  0  0  0  0  0  0  0  0  0  0
   15.1274    7.1622   -8.7878 H   0  0  0  0  0  0  0  0  0  0  0  0
   11.6350    8.3600   -4.9558 H   0  0  0  0  0  0  0  0  0  0  0  0
   14.6281    4.5128   -7.9659 H   0  0  0  0  0  0  0  0  0  0  0  0
   16.3358    2.7953   -7.9351 H   0  0  0  0  0  0  0  0  0  0  0  0
   15.0555    0.4590   -7.8153 H   0  0  0  0  0  0  0  0  0  0  0  0
   15.0006   -1.2758   -8.1171 H   0  0  0  0  0  0  0  0  0  0  0  0
   13.5816    0.2838   -5.9322 H   0  0  0  0  0  0  0  0  0  0  0  0
   12.4490   -0.5776   -7.7526 H   0  0  0  0  0  0  0  0  0  0  0  0
   13.8884   -2.6497   -5.4175 H   0  0  0  0  0  0  0  0  0  0  0  0
   14.0682   -1.2617   -4.3499 H   0  0  0  0  0  0  0  0  0  0  0  0
  1 35  1  0  0  0  0
  1 36  1  0  0  0  0
  1 37  1  0  0  0  0
  1  2  1  0  0  0  0
  2  3  2  0  0  0  0
  2  4  1  0  0  0  0
  4 38  1  0  0  0  0
  5  4  1  0  0  0  0
  5 39  1  0  0  0  0
  5  6  1  0  0  0  0
  5 10  1  0  0  0  0
  6  7  1  0  0  0  0
  6  8  1  0  0  0  0
  6  9  1  0  0  0  0
  7 40  1  0  0  0  0
  7 41  1  0  0  0  0
  7 42  1  0  0  0  0
  8 43  1  0  0  0  0
  8 44  1  0  0  0  0
  8 45  1  0  0  0  0
  9 46  1  0  0  0  0
  9 47  1  0  0  0  0
  9 48  1  0  0  0  0
 10 11  2  0  0  0  0
 10 12  1  0  0  0  0
 12 34  1  0  0  0  0
 13 12  1  0  0  0  0
 13 31  1  0  0  0  0
 13 49  1  0  0  0  0
 13 14  1  0  0  0  0
 14 15  2  0  0  0  0
 14 16  1  0  0  0  0
 16 50  1  0  0  0  0
 17 16  1  0  0  0  0
 17 51  1  0  0  0  0
 17 18  1  0  0  0  0
 17 19  1  0  0  0  0
 18 52  1  0  0  0  0
 18 53  1  0  0  0  0
 18 54  1  0  0  0  0
 19 20  1  0  0  0  0
 19 30  2  0  0  0  0
 20 55  1  0  0  0  0
 20 21  2  0  0  0  0
 21 56  1  0  0  0  0
 21 22  1  0  0  0  0
 22 29  2  0  0  0  0
 22 23  1  0  0  0  0
 23 24  2  0  0  0  0
 23 28  1  0  0  0  0
 24 25  1  0  0  0  0
 24 26  1  0  0  0  0
 25 57  1  0  0  0  0
 25 58  1  0  0  0  0
 25 59  1  0  0  0  0
 26 27  2  0  0  0  0
 27 60  1  0  0  0  0
 27 28  1  0  0  0  0
 29 61  1  0  0  0  0
 29 30  1  0  0  0  0
 30 62  1  0  0  0  0
 32 31  1  0  0  0  0
 31 63  1  0  0  0  0
 31 64  1  0  0  0  0
 32 34  1  0  0  0  0
 32 65  1  0  0  0  0
 32 33  1  0  0  0  0
 33 66  1  0  0  0  0
 34 67  1  0  0  0  0
 34 68  1  0  0  0  0
M  ZZC   1 c1
M  ZZC   2 c2
M  ZZC   3 o1
M  ZZC   4 n1
M  ZZC   5 c3
M  ZZC   6 c4
M  ZZC   7 c5
M  ZZC   8 c6
M  ZZC   9 c7
M  ZZC  10 c8
M  ZZC  11 o2
M  ZZC  12 n2
M  ZZC  13 c9
M  ZZC  14 c10
M  ZZC  15 o3
M  ZZC  16 n3
M  ZZC  17 c11
M  ZZC  18 c12
M  ZZC  19 c13
M  ZZC  20 c14
M  ZZC  21 c15
M  ZZC  22 c16
M  ZZC  23 c17
M  ZZC  24 c18
M  ZZC  25 c19
M  ZZC  26 n4
M  ZZC  27 c20
M  ZZC  28 s1
M  ZZC  29 c21
M  ZZC  30 c22
M  ZZC  31 c23
M  ZZC  32 c24
M  ZZC  33 o4
M  ZZC  34 c25
M  ZZC  35 h11
M  ZZC  36 h12
M  ZZC  37 h13
M  ZZC  38 h01
M  ZZC  39 h31
M  ZZC  40 h51
M  ZZC  41 h52
M  ZZC  42 h53
M  ZZC  43 h61
M  ZZC  44 h62
M  ZZC  45 h63
M  ZZC  46 h71
M  ZZC  47 h72
M  ZZC  48 h73
M  ZZC  49 h91
M  ZZC  50 h02
M  ZZC  51 h111
M  ZZC  52 h121
M  ZZC  53 h122
M  ZZC  54 h123
M  ZZC  55 h141
M  ZZC  56 h151
M  ZZC  57 h191
M  ZZC  58 h192
M  ZZC  59 h193
M  ZZC  60 h201
M  ZZC  61 h211
M  ZZC  62 h221
M  ZZC  63 h231
M  ZZC  64 h232
M  ZZC  65 h241
M  ZZC  66 h41
M  ZZC  67 h251
M  ZZC  68 h252
M  ZZM   1 1
M  ZZI   1 111
M  ZZM   2 3
M  ZZI   2 121
M  ZZM   3 7
M  ZZI   3 81
M  ZZM   4 10
M  ZZI   4 211
M  ZZM   5 1
M  ZZI   5 113
M  ZZM   6 1
M  ZZI   6 110
M  ZZM   7 1
M  ZZI   7 111
M  ZZM   8 1
M  ZZI   8 111
M  ZZM   9 1
M  ZZI   9 111
M  ZZM  10 3
M  ZZI  10 121
M  ZZM  11 7
M  ZZI  11 81
M  ZZM  12 10
M  ZZI  12 192
M  ZZM  13 1
M  ZZI  13 113
M  ZZM  14 3
M  ZZI  14 121
M  ZZM  15 7
M  ZZI  15 81
M  ZZM  16 10
M  ZZI  16 211
M  ZZM  17 1
M  ZZI  17 113
M  ZZM  18 1
M  ZZI  18 111
M  ZZM  19 37
M  ZZI  19 124
M  ZZM  20 37
M  ZZI  20 125
M  ZZM  21 37
M  ZZI  21 125
M  ZZM  22 37
M  ZZI  22 124
M  ZZM  23 63
M  ZZI  23 104
M  ZZM  24 64
M  ZZI  24 105
M  ZZM  25 1
M  ZZI  25 111
M  ZZM  26 66
M  ZZI  26 222
M  ZZM  27 63
M  ZZI  27 104
M  ZZM  28 44
M  ZZI  28 248
M  ZZM  29 37
M  ZZI  29 125
M  ZZM  30 37
M  ZZI  30 125
M  ZZM  31 1
M  ZZI  31 112
M  ZZM  32 1
M  ZZI  32 113
M  ZZM  33 6
M  ZZI  33 60
M  ZZM  34 1
M  ZZI  34 112
M  ZZM  35 5
M  ZZI  35 1
M  ZZM  36 5
M  ZZI  36 1
M  ZZM  37 5
M  ZZI  37 1
M  ZZM  38 28
M  ZZI  38 11
M  ZZM  39 5
M  ZZI  39 1
M  ZZM  40 5
M  ZZI  40 1
M  ZZM  41 5
M  ZZI  41 1
M  ZZM  42 5
M  ZZI  42 1
M  ZZM  43 5
M  ZZI  43 1
M  ZZM  44 5
M  ZZI  44 1
M  ZZM  45 5
M  ZZI  45 1
M  ZZM  46 5
M  ZZI  46 1
M  ZZM  47 5
M  ZZI  47 1
M  ZZM  48 5
M  ZZI  48 1
M  ZZM  49 5
M  ZZI  49 1
M  ZZM  50 28
M  ZZI  50 11
M  ZZM  51 5
M  ZZI  51 1
M  ZZM  52 5
M  ZZI  52 1
M  ZZM  53 5
M  ZZI  53 1
M  ZZM  54 5
M  ZZI  54 1
M  ZZM  55 5
M  ZZI  55 1
M  ZZM  56 5
M  ZZI  56 1
M  ZZM  57 5
M  ZZI  57 1
M  ZZM  58 5
M  ZZI  58 1
M  ZZM  59 5
M  ZZI  59 1
M  ZZM  60 5
M  ZZI  60 1
M  ZZM  61 5
M  ZZI  61 1
M  ZZM  62 5
M  ZZI  62 1
M  ZZM  63 5
M  ZZI  63 1
M  ZZM  64 5
M  ZZI  64 1
M  ZZM  65 5
M  ZZI  65 1
M  ZZM  66 21
M  ZZI  66 20
M  ZZM  67 5
M  ZZI  67 1
M  ZZM  68 5
M  ZZI  68 1
M  END
> <IX>
1

> <NAME>
VHL_4QNQ_5.pdb

> <Score>
-0.205598

> <Natom>
68

> <Nflex>
8

> <Hbond>
-5.103422

> <Hphob>
-6.937925

> <VwInt>
-27.10264

> <Dsolv>
22.508047

> <SolEl>
25.864376

> <Eintl>
9.509309

> <RecConf>
ND

> <projPath>
VHL_maps/

> <NAME_>
VHL_4QNQ_5.pdb

$$$$
