VHL_5G0J_6.pdb
  MOLSOFT 04032206413D

 65 67  0  0  1  0  0  0  0  0999 V2000
   18.1254   -6.6984   -5.1421 C   0  0  0  0  0  0  0  0  0  0  0  0
   16.9132   -5.8201   -4.9907 C   0  0  0  0  0  0  0  0  0  0  0  0
   15.8266   -6.1773   -5.4117 O   0  0  0  0  0  0  0  0  0  0  0  0
   17.1605   -4.6395   -4.3182 N   0  0  0  0  0  0  0  0  0  0  0  0
   16.1545   -3.5993   -4.0480 C   0  0  1  0  0  0  0  0  0  0  0  0
   15.8821   -3.4376   -2.5232 C   0  0  0  0  0  0  0  0  0  0  0  0
   17.1310   -2.9888   -1.7513 C   0  0  0  0  0  0  0  0  0  0  0  0
   14.7707   -2.4246   -2.2253 C   0  0  0  0  0  0  0  0  0  0  0  0
   15.4044   -4.7891   -1.9778 C   0  0  0  0  0  0  0  0  0  0  0  0
   16.6770   -2.3500   -4.7881 C   0  0  0  0  0  0  0  0  0  0  0  0
   17.8755   -2.0960   -4.8180 O   0  0  0  0  0  0  0  0  0  0  0  0
   15.7490   -1.5505   -5.4616 N   0  0  0  0  0  0  0  0  0  0  0  0
   16.1783   -0.6158   -6.4912 C   0  0  2  0  0  0  0  0  0  0  0  0
   16.5816    0.7505   -5.9272 C   0  0  0  0  0  0  0  0  0  0  0  0
   16.0393    1.2514   -4.9514 O   0  0  0  0  0  0  0  0  0  0  0  0
   17.5575    1.3866   -6.6750 N   0  0  0  0  0  0  0  0  0  0  0  0
   18.0079    2.7349   -6.3644 C   0  0  0  0  0  0  0  0  0  0  0  0
   19.4669    3.0236   -6.6441 C   0  0  0  0  0  0  0  0  0  0  0  0
   19.9738    4.2881   -6.3535 C   0  0  0  0  0  0  0  0  0  0  0  0
   21.3118    4.5971   -6.5491 C   0  0  0  0  0  0  0  0  0  0  0  0
   22.1915    3.6487   -7.0570 C   0  0  0  0  0  0  0  0  0  0  0  0
   23.6151    3.9225   -7.2173 C   0  0  0  0  0  0  0  0  0  0  0  0
   24.4326    3.8880   -8.3410 C   0  0  0  0  0  0  0  0  0  0  0  0
   24.0263    3.6217   -9.7384 C   0  0  0  0  0  0  0  0  0  0  0  0
   25.7706    4.1252   -8.0997 N   0  0  0  0  0  0  0  0  0  0  0  0
   25.9572    4.3587   -6.8209 C   0  0  0  0  0  0  0  0  0  0  0  0
   24.5637    4.3157   -5.8355 S   0  0  0  0  0  0  0  0  0  0  0  0
   21.6817    2.3995   -7.3771 C   0  0  0  0  0  0  0  0  0  0  0  0
   20.3522    2.0866   -7.1673 C   0  0  0  0  0  0  0  0  0  0  0  0
   14.9611   -0.4969   -7.3962 C   0  0  0  0  0  0  0  0  0  0  0  0
   13.7838   -0.6399   -6.4419 C   0  0  1  0  0  0  0  0  0  0  0  0
   12.6529   -1.2365   -7.0724 O   0  0  0  0  0  0  0  0  0  0  0  0
   14.3008   -1.5569   -5.3469 C   0  0  0  0  0  0  0  0  0  0  0  0
   19.0386   -6.1009   -5.2202 H   0  0  0  0  0  0  0  0  0  0  0  0
   18.0276   -7.2996   -6.0510 H   0  0  0  0  0  0  0  0  0  0  0  0
   18.1922   -7.3631   -4.2775 H   0  0  0  0  0  0  0  0  0  0  0  0
   18.1211   -4.4361   -4.0659 H   0  0  0  0  0  0  0  0  0  0  0  0
   15.2290   -3.9266   -4.5204 H   0  0  0  0  0  0  0  0  0  0  0  0
   16.9353   -2.9286   -0.6758 H   0  0  0  0  0  0  0  0  0  0  0  0
   17.4753   -2.0013   -2.0736 H   0  0  0  0  0  0  0  0  0  0  0  0
   17.9583   -3.6830   -1.8838 H   0  0  0  0  0  0  0  0  0  0  0  0
   15.0635   -1.4096   -2.5076 H   0  0  0  0  0  0  0  0  0  0  0  0
   14.5359   -2.3921   -1.1562 H   0  0  0  0  0  0  0  0  0  0  0  0
   13.8432   -2.6851   -2.7441 H   0  0  0  0  0  0  0  0  0  0  0  0
   15.1343   -4.7122   -0.9223 H   0  0  0  0  0  0  0  0  0  0  0  0
   16.1727   -5.5591   -2.0697 H   0  0  0  0  0  0  0  0  0  0  0  0
   14.5205   -5.1492   -2.5139 H   0  0  0  0  0  0  0  0  0  0  0  0
   17.0285   -1.0377   -7.0359 H   0  0  0  0  0  0  0  0  0  0  0  0
   17.9377    0.9124   -7.4877 H   0  0  0  0  0  0  0  0  0  0  0  0
   17.3879    3.4094   -6.9649 H   0  0  0  0  0  0  0  0  0  0  0  0
   17.8003    2.9398   -5.3087 H   0  0  0  0  0  0  0  0  0  0  0  0
   19.3184    5.0529   -5.9467 H   0  0  0  0  0  0  0  0  0  0  0  0
   21.6644    5.5917   -6.2925 H   0  0  0  0  0  0  0  0  0  0  0  0
   23.8565    2.5541   -9.8911 H   0  0  0  0  0  0  0  0  0  0  0  0
   24.8034    3.9379  -10.4401 H   0  0  0  0  0  0  0  0  0  0  0  0
   23.1119    4.1648   -9.9916 H   0  0  0  0  0  0  0  0  0  0  0  0
   26.9346    4.5666   -6.4092 H   0  0  0  0  0  0  0  0  0  0  0  0
   22.3311    1.6296   -7.7743 H   0  0  0  0  0  0  0  0  0  0  0  0
   20.0304    1.0806   -7.4035 H   0  0  0  0  0  0  0  0  0  0  0  0
   14.9206    0.4416   -7.9592 H   0  0  0  0  0  0  0  0  0  0  0  0
   14.9544   -1.3130   -8.1274 H   0  0  0  0  0  0  0  0  0  0  0  0
   13.4841    0.3298   -6.0280 H   0  0  0  0  0  0  0  0  0  0  0  0
   12.3436   -0.6373   -7.7751 H   0  0  0  0  0  0  0  0  0  0  0  0
   13.9035   -2.5712   -5.4060 H   0  0  0  0  0  0  0  0  0  0  0  0
   14.0196   -1.1431   -4.3785 H   0  0  0  0  0  0  0  0  0  0  0  0
  1 34  1  0  0  0  0
  1 35  1  0  0  0  0
  1 36  1  0  0  0  0
  1  2  1  0  0  0  0
  2  3  2  0  0  0  0
  2  4  1  0  0  0  0
  4 37  1  0  0  0  0
  5  4  1  0  0  0  0
  5 38  1  0  0  0  0
  5  6  1  0  0  0  0
  5 10  1  0  0  0  0
  6  7  1  0  0  0  0
  6  8  1  0  0  0  0
  6  9  1  0  0  0  0
  7 39  1  0  0  0  0
  7 40  1  0  0  0  0
  7 41  1  0  0  0  0
  8 42  1  0  0  0  0
  8 43  1  0  0  0  0
  8 44  1  0  0  0  0
  9 45  1  0  0  0  0
  9 46  1  0  0  0  0
  9 47  1  0  0  0  0
 10 11  2  0  0  0  0
 10 12  1  0  0  0  0
 12 33  1  0  0  0  0
 13 12  1  0  0  0  0
 13 30  1  0  0  0  0
 13 48  1  0  0  0  0
 13 14  1  0  0  0  0
 14 15  2  0  0  0  0
 14 16  1  0  0  0  0
 16 49  1  0  0  0  0
 16 17  1  0  0  0  0
 17 50  1  0  0  0  0
 17 51  1  0  0  0  0
 17 18  1  0  0  0  0
 18 19  1  0  0  0  0
 18 29  2  0  0  0  0
 19 52  1  0  0  0  0
 19 20  2  0  0  0  0
 20 53  1  0  0  0  0
 20 21  1  0  0  0  0
 21 28  2  0  0  0  0
 21 22  1  0  0  0  0
 22 23  2  0  0  0  0
 22 27  1  0  0  0  0
 23 24  1  0  0  0  0
 23 25  1  0  0  0  0
 24 54  1  0  0  0  0
 24 55  1  0  0  0  0
 24 56  1  0  0  0  0
 25 26  2  0  0  0  0
 26 57  1  0  0  0  0
 26 27  1  0  0  0  0
 28 58  1  0  0  0  0
 28 29  1  0  0  0  0
 29 59  1  0  0  0  0
 31 30  1  0  0  0  0
 30 60  1  0  0  0  0
 30 61  1  0  0  0  0
 31 33  1  0  0  0  0
 31 62  1  0  0  0  0
 31 32  1  0  0  0  0
 32 63  1  0  0  0  0
 33 64  1  0  0  0  0
 33 65  1  0  0  0  0
M  ZZC   1 c1
M  ZZC   2 c2
M  ZZC   3 o1
M  ZZC   4 n1
M  ZZC   5 c3
M  ZZC   6 c4
M  ZZC   7 c5
M  ZZC   8 c6
M  ZZC   9 c7
M  ZZC  10 c8
M  ZZC  11 o2
M  ZZC  12 n2
M  ZZC  13 c9
M  ZZC  14 c10
M  ZZC  15 o3
M  ZZC  16 n3
M  ZZC  17 c11
M  ZZC  18 c12
M  ZZC  19 c13
M  ZZC  20 c14
M  ZZC  21 c15
M  ZZC  22 c16
M  ZZC  23 c17
M  ZZC  24 c18
M  ZZC  25 n4
M  ZZC  26 c19
M  ZZC  27 s1
M  ZZC  28 c20
M  ZZC  29 c21
M  ZZC  30 c22
M  ZZC  31 c23
M  ZZC  32 o4
M  ZZC  33 c24
M  ZZC  34 h11
M  ZZC  35 h12
M  ZZC  36 h13
M  ZZC  37 h01
M  ZZC  38 h31
M  ZZC  39 h51
M  ZZC  40 h52
M  ZZC  41 h53
M  ZZC  42 h61
M  ZZC  43 h62
M  ZZC  44 h63
M  ZZC  45 h71
M  ZZC  46 h72
M  ZZC  47 h73
M  ZZC  48 h91
M  ZZC  49 h02
M  ZZC  50 h111
M  ZZC  51 h112
M  ZZC  52 h131
M  ZZC  53 h141
M  ZZC  54 h181
M  ZZC  55 h182
M  ZZC  56 h183
M  ZZC  57 h191
M  ZZC  58 h201
M  ZZC  59 h211
M  ZZC  60 h221
M  ZZC  61 h222
M  ZZC  62 h231
M  ZZC  63 h41
M  ZZC  64 h241
M  ZZC  65 h242
M  ZZM   1 1
M  ZZI   1 111
M  ZZM   2 3
M  ZZI   2 121
M  ZZM   3 7
M  ZZI   3 81
M  ZZM   4 10
M  ZZI   4 211
M  ZZM   5 1
M  ZZI   5 113
M  ZZM   6 1
M  ZZI   6 110
M  ZZM   7 1
M  ZZI   7 111
M  ZZM   8 1
M  ZZI   8 111
M  ZZM   9 1
M  ZZI   9 111
M  ZZM  10 3
M  ZZI  10 121
M  ZZM  11 7
M  ZZI  11 81
M  ZZM  12 10
M  ZZI  12 192
M  ZZM  13 1
M  ZZI  13 113
M  ZZM  14 3
M  ZZI  14 121
M  ZZM  15 7
M  ZZI  15 81
M  ZZM  16 10
M  ZZI  16 211
M  ZZM  17 1
M  ZZI  17 112
M  ZZM  18 37
M  ZZI  18 124
M  ZZM  19 37
M  ZZI  19 125
M  ZZM  20 37
M  ZZI  20 125
M  ZZM  21 37
M  ZZI  21 124
M  ZZM  22 63
M  ZZI  22 104
M  ZZM  23 64
M  ZZI  23 105
M  ZZM  24 1
M  ZZI  24 111
M  ZZM  25 66
M  ZZI  25 222
M  ZZM  26 63
M  ZZI  26 104
M  ZZM  27 44
M  ZZI  27 248
M  ZZM  28 37
M  ZZI  28 125
M  ZZM  29 37
M  ZZI  29 125
M  ZZM  30 1
M  ZZI  30 112
M  ZZM  31 1
M  ZZI  31 113
M  ZZM  32 6
M  ZZI  32 60
M  ZZM  33 1
M  ZZI  33 112
M  ZZM  34 5
M  ZZI  34 1
M  ZZM  35 5
M  ZZI  35 1
M  ZZM  36 5
M  ZZI  36 1
M  ZZM  37 28
M  ZZI  37 11
M  ZZM  38 5
M  ZZI  38 1
M  ZZM  39 5
M  ZZI  39 1
M  ZZM  40 5
M  ZZI  40 1
M  ZZM  41 5
M  ZZI  41 1
M  ZZM  42 5
M  ZZI  42 1
M  ZZM  43 5
M  ZZI  43 1
M  ZZM  44 5
M  ZZI  44 1
M  ZZM  45 5
M  ZZI  45 1
M  ZZM  46 5
M  ZZI  46 1
M  ZZM  47 5
M  ZZI  47 1
M  ZZM  48 5
M  ZZI  48 1
M  ZZM  49 28
M  ZZI  49 11
M  ZZM  50 5
M  ZZI  50 1
M  ZZM  51 5
M  ZZI  51 1
M  ZZM  52 5
M  ZZI  52 1
M  ZZM  53 5
M  ZZI  53 1
M  ZZM  54 5
M  ZZI  54 1
M  ZZM  55 5
M  ZZI  55 1
M  ZZM  56 5
M  ZZI  56 1
M  ZZM  57 5
M  ZZI  57 1
M  ZZM  58 5
M  ZZI  58 1
M  ZZM  59 5
M  ZZI  59 1
M  ZZM  60 5
M  ZZI  60 1
M  ZZM  61 5
M  ZZI  61 1
M  ZZM  62 5
M  ZZI  62 1
M  ZZM  63 21
M  ZZI  63 20
M  ZZM  64 5
M  ZZI  64 1
M  ZZM  65 5
M  ZZI  65 1
M  END
> <IX>
1

> <NAME>
VHL_5G0J_6.pdb

> <Score>
-10.900964

> <Natom>
65

> <Nflex>
8

> <Hbond>
-4.96228

> <Hphob>
-6.496585

> <VwInt>
-28.209198

> <Dsolv>
16.932632

> <SolEl>
17.276802

> <Eintl>
8.855586

> <RecConf>
ND

> <projPath>
VHL_maps/

> <NAME_>
VHL_5G0J_6.pdb

$$$$
