VHL_5T8E_53.pdb
  MOLSOFT 04032206463D

 84 88  0  0  1  0  0  0  0  0999 V2000
   18.6466   -7.1317   -6.1987 C   0  0  0  0  0  0  0  0  0  0  0  0
   19.0611   -5.6742   -6.0205 C   0  0  0  0  0  0  0  0  0  0  0  0
   17.9189   -4.7354   -5.6301 C   0  0  0  0  0  0  0  0  0  0  0  0
   17.0968   -5.2365   -4.5361 N   0  0  0  0  0  0  0  0  0  0  0  0
   16.1085   -4.4939   -3.8915 C   0  0  0  0  0  0  0  0  0  0  0  0
   15.3645   -4.9747   -3.0488 O   0  0  0  0  0  0  0  0  0  0  0  0
   16.0092   -3.0282   -4.2787 C   0  0  0  0  0  0  0  0  0  0  0  0
   14.7361   -2.3684   -3.7247 C   0  0  2  0  0  0  0  0  0  0  0  0
   14.5271   -1.0824   -4.3743 N   0  0  0  0  0  0  0  0  0  0  0  0
   13.8390   -0.8912   -5.5574 C   0  0  0  0  0  0  0  0  0  0  0  0
   13.4720   -1.8167   -6.2690 O   0  0  0  0  0  0  0  0  0  0  0  0
   13.4335    0.5704   -5.8210 C   0  0  1  0  0  0  0  0  0  0  0  0
   14.2593    1.5902   -5.1630 N   0  0  0  0  0  0  0  0  0  0  0  0
   14.0391    1.9969   -3.8395 C   0  0  0  0  0  0  0  0  0  0  0  0
   13.1967    1.4553   -3.1371 O   0  0  0  0  0  0  0  0  0  0  0  0
   14.9048    3.1362   -3.2865 C   0  0  2  0  0  0  0  0  0  0  0  0
   15.4277    2.8061   -1.8628 C   0  0  0  0  0  0  0  0  0  0  0  0
   16.2038    3.9751   -1.2476 C   0  0  0  0  0  0  0  0  0  0  0  0
   16.3401    1.5784   -1.8769 C   0  0  0  0  0  0  0  0  0  0  0  0
   14.0751    4.3804   -3.3156 C   0  0  0  0  0  0  0  0  0  0  0  0
   13.2109    4.5873   -2.2790 O   0  0  0  0  0  0  0  0  0  0  0  0
   12.5604    5.8127   -2.4548 N   0  0  0  0  0  0  0  0  0  0  0  0
   13.0218    6.2966   -3.6152 C   0  0  0  0  0  0  0  0  0  0  0  0
   12.5193    7.5772   -4.1520 C   0  0  0  0  0  0  0  0  0  0  0  0
   13.9884    5.4397   -4.1856 C   0  0  0  0  0  0  0  0  0  0  0  0
   15.1532    2.2225   -6.1209 C   0  0  0  0  0  0  0  0  0  0  0  0
   14.9288    1.4994   -7.4431 C   0  0  2  0  0  0  0  0  0  0  0  0
   15.0339    2.3930   -8.5603 O   0  0  0  0  0  0  0  0  0  0  0  0
   13.5289    0.9230   -7.2977 C   0  0  0  0  0  0  0  0  0  0  0  0
   14.6668   -2.1396   -2.2188 C   0  0  0  0  0  0  0  0  0  0  0  0
   13.5078   -1.5745   -1.6947 C   0  0  0  0  0  0  0  0  0  0  0  0
   13.3725   -1.2830   -0.3534 C   0  0  0  0  0  0  0  0  0  0  0  0
   14.3942   -1.5706    0.5377 C   0  0  0  0  0  0  0  0  0  0  0  0
   14.2358   -1.2545    1.9506 C   0  0  0  0  0  0  0  0  0  0  0  0
   13.9147   -0.0545    2.5735 C   0  0  0  0  0  0  0  0  0  0  0  0
   13.6869    1.2589    1.9222 C   0  0  0  0  0  0  0  0  0  0  0  0
   13.8021   -0.1229    3.9486 N   0  0  0  0  0  0  0  0  0  0  0  0
   14.0265   -1.3533    4.3506 C   0  0  0  0  0  0  0  0  0  0  0  0
   14.4031   -2.4912    3.1354 S   0  0  0  0  0  0  0  0  0  0  0  0
   15.5538   -2.1549    0.0382 C   0  0  0  0  0  0  0  0  0  0  0  0
   15.6929   -2.4262   -1.3149 C   0  0  0  0  0  0  0  0  0  0  0  0
   17.2570   -6.6393   -4.2017 C   0  0  0  0  0  0  0  0  0  0  0  0
   17.3740   -7.4892   -5.4487 C   0  0  0  0  0  0  0  0  0  0  0  0
   18.5139   -7.3617   -7.2543 H   0  0  0  0  0  0  0  0  0  0  0  0
   19.4663   -7.7711   -5.8549 H   0  0  0  0  0  0  0  0  0  0  0  0
   19.8226   -5.6430   -5.2411 H   0  0  0  0  0  0  0  0  0  0  0  0
   19.5561   -5.3124   -6.9263 H   0  0  0  0  0  0  0  0  0  0  0  0
   18.3146   -3.7507   -5.3650 H   0  0  0  0  0  0  0  0  0  0  0  0
   17.2415   -4.5886   -6.4708 H   0  0  0  0  0  0  0  0  0  0  0  0
   16.9106   -2.5047   -3.9401 H   0  0  0  0  0  0  0  0  0  0  0  0
   15.9954   -2.9612   -5.3714 H   0  0  0  0  0  0  0  0  0  0  0  0
   13.8854   -3.0063   -3.9940 H   0  0  0  0  0  0  0  0  0  0  0  0
   14.8425   -0.2595   -3.8781 H   0  0  0  0  0  0  0  0  0  0  0  0
   12.4004    0.6628   -5.4682 H   0  0  0  0  0  0  0  0  0  0  0  0
   15.7738    3.2899   -3.9320 H   0  0  0  0  0  0  0  0  0  0  0  0
   14.5842    2.5819   -1.1992 H   0  0  0  0  0  0  0  0  0  0  0  0
   16.6105    3.7021   -0.2690 H   0  0  0  0  0  0  0  0  0  0  0  0
   15.5700    4.8521   -1.0915 H   0  0  0  0  0  0  0  0  0  0  0  0
   17.0425    4.2757   -1.8839 H   0  0  0  0  0  0  0  0  0  0  0  0
   15.8021    0.6922   -2.2275 H   0  0  0  0  0  0  0  0  0  0  0  0
   16.7330    1.3583   -0.8789 H   0  0  0  0  0  0  0  0  0  0  0  0
   17.1890    1.7188   -2.5459 H   0  0  0  0  0  0  0  0  0  0  0  0
   13.1533    8.4069   -3.8265 H   0  0  0  0  0  0  0  0  0  0  0  0
   11.4991    7.7676   -3.8124 H   0  0  0  0  0  0  0  0  0  0  0  0
   12.5043    7.5628   -5.2457 H   0  0  0  0  0  0  0  0  0  0  0  0
   14.5370    5.5763   -5.1060 H   0  0  0  0  0  0  0  0  0  0  0  0
   14.9164    3.2890   -6.1915 H   0  0  0  0  0  0  0  0  0  0  0  0
   16.1898    2.1251   -5.7824 H   0  0  0  0  0  0  0  0  0  0  0  0
   15.6645    0.6970   -7.5698 H   0  0  0  0  0  0  0  0  0  0  0  0
   14.1968    2.8851   -8.6441 H   0  0  0  0  0  0  0  0  0  0  0  0
   13.3665    0.0751   -7.9656 H   0  0  0  0  0  0  0  0  0  0  0  0
   12.7785    1.6791   -7.5540 H   0  0  0  0  0  0  0  0  0  0  0  0
   12.6843   -1.3287   -2.3526 H   0  0  0  0  0  0  0  0  0  0  0  0
   12.4450   -0.8371   -0.0071 H   0  0  0  0  0  0  0  0  0  0  0  0
   13.7118    2.0725    2.6527 H   0  0  0  0  0  0  0  0  0  0  0  0
   12.7120    1.2878    1.4269 H   0  0  0  0  0  0  0  0  0  0  0  0
   14.4501    1.4518    1.1629 H   0  0  0  0  0  0  0  0  0  0  0  0
   13.9801   -1.6371    5.3921 H   0  0  0  0  0  0  0  0  0  0  0  0
   16.3792   -2.3913    0.7031 H   0  0  0  0  0  0  0  0  0  0  0  0
   16.6274   -2.8652   -1.6471 H   0  0  0  0  0  0  0  0  0  0  0  0
   18.1541   -6.7375   -3.5962 H   0  0  0  0  0  0  0  0  0  0  0  0
   16.4304   -6.9656   -3.5790 H   0  0  0  0  0  0  0  0  0  0  0  0
   16.5047   -7.3206   -6.0936 H   0  0  0  0  0  0  0  0  0  0  0  0
   17.3792   -8.5525   -5.1909 H   0  0  0  0  0  0  0  0  0  0  0  0
  1 44  1  0  0  0  0
  1 45  1  0  0  0  0
  1  2  1  0  0  0  0
  1 43  1  0  0  0  0
  2 46  1  0  0  0  0
  2 47  1  0  0  0  0
  2  3  1  0  0  0  0
  3 48  1  0  0  0  0
  3 49  1  0  0  0  0
  3  4  1  0  0  0  0
  4 42  1  0  0  0  0
  4  5  1  0  0  0  0
  5  6  2  0  0  0  0
  5  7  1  0  0  0  0
  7 50  1  0  0  0  0
  7 51  1  0  0  0  0
  8  7  1  0  0  0  0
  8 52  1  0  0  0  0
  8 30  1  0  0  0  0
  8  9  1  0  0  0  0
  9 53  1  0  0  0  0
  9 10  1  0  0  0  0
 10 11  2  0  0  0  0
 12 10  1  0  0  0  0
 12 54  1  0  0  0  0
 12 29  1  0  0  0  0
 12 13  1  0  0  0  0
 13 26  1  0  0  0  0
 13 14  1  0  0  0  0
 14 15  2  0  0  0  0
 16 14  1  0  0  0  0
 16 55  1  0  0  0  0
 16 17  1  0  0  0  0
 16 20  1  0  0  0  0
 17 56  1  0  0  0  0
 17 19  1  0  0  0  0
 17 18  1  0  0  0  0
 18 57  1  0  0  0  0
 18 58  1  0  0  0  0
 18 59  1  0  0  0  0
 19 60  1  0  0  0  0
 19 61  1  0  0  0  0
 19 62  1  0  0  0  0
 20 25  2  0  0  0  0
 20 21  1  0  0  0  0
 21 22  1  0  0  0  0
 22 23  2  0  0  0  0
 23 25  1  0  0  0  0
 23 24  1  0  0  0  0
 24 63  1  0  0  0  0
 24 64  1  0  0  0  0
 24 65  1  0  0  0  0
 25 66  1  0  0  0  0
 27 26  1  0  0  0  0
 26 67  1  0  0  0  0
 26 68  1  0  0  0  0
 27 29  1  0  0  0  0
 27 69  1  0  0  0  0
 27 28  1  0  0  0  0
 28 70  1  0  0  0  0
 29 71  1  0  0  0  0
 29 72  1  0  0  0  0
 30 31  1  0  0  0  0
 30 41  2  0  0  0  0
 31 73  1  0  0  0  0
 31 32  2  0  0  0  0
 32 74  1  0  0  0  0
 32 33  1  0  0  0  0
 33 40  2  0  0  0  0
 33 34  1  0  0  0  0
 34 35  2  0  0  0  0
 34 39  1  0  0  0  0
 35 36  1  0  0  0  0
 35 37  1  0  0  0  0
 36 75  1  0  0  0  0
 36 76  1  0  0  0  0
 36 77  1  0  0  0  0
 37 38  2  0  0  0  0
 38 78  1  0  0  0  0
 38 39  1  0  0  0  0
 40 79  1  0  0  0  0
 40 41  1  0  0  0  0
 41 80  1  0  0  0  0
 42 81  1  0  0  0  0
 42 82  1  0  0  0  0
 42 43  1  0  0  0  0
 43 83  1  0  0  0  0
 43 84  1  0  0  0  0
M  ZZC   1 c1
M  ZZC   2 c2
M  ZZC   3 c3
M  ZZC   4 n1
M  ZZC   5 c4
M  ZZC   6 o1
M  ZZC   7 c5
M  ZZC   8 c6
M  ZZC   9 n2
M  ZZC  10 c7
M  ZZC  11 o2
M  ZZC  12 c8
M  ZZC  13 n3
M  ZZC  14 c9
M  ZZC  15 o3
M  ZZC  16 c10
M  ZZC  17 c11
M  ZZC  18 c12
M  ZZC  19 c13
M  ZZC  20 c14
M  ZZC  21 o4
M  ZZC  22 n4
M  ZZC  23 c15
M  ZZC  24 c16
M  ZZC  25 c17
M  ZZC  26 c18
M  ZZC  27 c19
M  ZZC  28 o5
M  ZZC  29 c20
M  ZZC  30 c21
M  ZZC  31 c22
M  ZZC  32 c23
M  ZZC  33 c24
M  ZZC  34 c25
M  ZZC  35 c26
M  ZZC  36 c27
M  ZZC  37 n5
M  ZZC  38 c28
M  ZZC  39 s1
M  ZZC  40 c29
M  ZZC  41 c30
M  ZZC  42 c31
M  ZZC  43 c32
M  ZZC  44 h11
M  ZZC  45 h12
M  ZZC  46 h21
M  ZZC  47 h22
M  ZZC  48 h31
M  ZZC  49 h32
M  ZZC  50 h51
M  ZZC  51 h52
M  ZZC  52 h61
M  ZZC  53 h01
M  ZZC  54 h81
M  ZZC  55 h101
M  ZZC  56 h111
M  ZZC  57 h121
M  ZZC  58 h122
M  ZZC  59 h123
M  ZZC  60 h131
M  ZZC  61 h132
M  ZZC  62 h133
M  ZZC  63 h161
M  ZZC  64 h162
M  ZZC  65 h163
M  ZZC  66 h171
M  ZZC  67 h181
M  ZZC  68 h182
M  ZZC  69 h191
M  ZZC  70 h02
M  ZZC  71 h201
M  ZZC  72 h202
M  ZZC  73 h221
M  ZZC  74 h231
M  ZZC  75 h271
M  ZZC  76 h272
M  ZZC  77 h273
M  ZZC  78 h281
M  ZZC  79 h291
M  ZZC  80 h301
M  ZZC  81 h311
M  ZZC  82 h312
M  ZZC  83 h321
M  ZZC  84 h322
M  ZZM   1 1
M  ZZI   1 112
M  ZZM   2 1
M  ZZI   2 112
M  ZZM   3 1
M  ZZI   3 112
M  ZZM   4 10
M  ZZI   4 192
M  ZZM   5 3
M  ZZI   5 121
M  ZZM   6 7
M  ZZI   6 81
M  ZZM   7 1
M  ZZI   7 112
M  ZZM   8 1
M  ZZI   8 113
M  ZZM   9 10
M  ZZI   9 211
M  ZZM  10 3
M  ZZI  10 121
M  ZZM  11 7
M  ZZI  11 81
M  ZZM  12 1
M  ZZI  12 113
M  ZZM  13 10
M  ZZI  13 192
M  ZZM  14 3
M  ZZI  14 121
M  ZZM  15 7
M  ZZI  15 81
M  ZZM  16 1
M  ZZI  16 113
M  ZZM  17 1
M  ZZI  17 113
M  ZZM  18 1
M  ZZI  18 111
M  ZZM  19 1
M  ZZI  19 111
M  ZZM  20 63
M  ZZI  20 104
M  ZZM  21 59
M  ZZI  21 56
M  ZZM  22 65
M  ZZI  22 207
M  ZZM  23 64
M  ZZI  23 105
M  ZZM  24 1
M  ZZI  24 111
M  ZZM  25 64
M  ZZI  25 105
M  ZZM  26 1
M  ZZI  26 112
M  ZZM  27 1
M  ZZI  27 113
M  ZZM  28 6
M  ZZI  28 60
M  ZZM  29 1
M  ZZI  29 112
M  ZZM  30 37
M  ZZI  30 124
M  ZZM  31 37
M  ZZI  31 125
M  ZZM  32 37
M  ZZI  32 125
M  ZZM  33 37
M  ZZI  33 124
M  ZZM  34 63
M  ZZI  34 104
M  ZZM  35 64
M  ZZI  35 105
M  ZZM  36 1
M  ZZI  36 111
M  ZZM  37 66
M  ZZI  37 222
M  ZZM  38 63
M  ZZI  38 104
M  ZZM  39 44
M  ZZI  39 248
M  ZZM  40 37
M  ZZI  40 125
M  ZZM  41 37
M  ZZI  41 125
M  ZZM  42 1
M  ZZI  42 112
M  ZZM  43 1
M  ZZI  43 112
M  ZZM  44 5
M  ZZI  44 1
M  ZZM  45 5
M  ZZI  45 1
M  ZZM  46 5
M  ZZI  46 1
M  ZZM  47 5
M  ZZI  47 1
M  ZZM  48 5
M  ZZI  48 1
M  ZZM  49 5
M  ZZI  49 1
M  ZZM  50 5
M  ZZI  50 1
M  ZZM  51 5
M  ZZI  51 1
M  ZZM  52 5
M  ZZI  52 1
M  ZZM  53 28
M  ZZI  53 11
M  ZZM  54 5
M  ZZI  54 1
M  ZZM  55 5
M  ZZI  55 1
M  ZZM  56 5
M  ZZI  56 1
M  ZZM  57 5
M  ZZI  57 1
M  ZZM  58 5
M  ZZI  58 1
M  ZZM  59 5
M  ZZI  59 1
M  ZZM  60 5
M  ZZI  60 1
M  ZZM  61 5
M  ZZI  61 1
M  ZZM  62 5
M  ZZI  62 1
M  ZZM  63 5
M  ZZI  63 1
M  ZZM  64 5
M  ZZI  64 1
M  ZZM  65 5
M  ZZI  65 1
M  ZZM  66 5
M  ZZI  66 1
M  ZZM  67 5
M  ZZI  67 1
M  ZZM  68 5
M  ZZI  68 1
M  ZZM  69 5
M  ZZI  69 1
M  ZZM  70 21
M  ZZI  70 20
M  ZZM  71 5
M  ZZI  71 1
M  ZZM  72 5
M  ZZI  72 1
M  ZZM  73 5
M  ZZI  73 1
M  ZZM  74 5
M  ZZI  74 1
M  ZZM  75 5
M  ZZI  75 1
M  ZZM  76 5
M  ZZI  76 1
M  ZZM  77 5
M  ZZI  77 1
M  ZZM  78 5
M  ZZI  78 1
M  ZZM  79 5
M  ZZI  79 1
M  ZZM  80 5
M  ZZI  80 1
M  ZZM  81 5
M  ZZI  81 1
M  ZZM  82 5
M  ZZI  82 1
M  ZZM  83 5
M  ZZI  83 1
M  ZZM  84 5
M  ZZI  84 1
M  END
> <IX>
1

> <NAME>
VHL_5T8E_53.pdb

> <Score>
-7.161242

> <Natom>
84

> <Nflex>
11

> <Hbond>
-4.572907

> <Hphob>
-7.743799

> <VwInt>
-30.97948

> <Dsolv>
21.803869

> <SolEl>
17.429119

> <Eintl>
10.199864

> <RecConf>
ND

> <projPath>
VHL_maps/

> <NAME_>
VHL_5T8E_53.pdb

$$$$
