VHL_5EU1_9.pdb
  MOLSOFT 04032206403D

 65 67  0  0  1  0  0  0  0  0999 V2000
   15.3147   -5.3104   -3.3417 O   0  0  0  0  0  0  0  0  0  0  0  0
   16.4276   -5.1169   -3.8058 C   0  0  0  0  0  0  0  0  0  0  0  0
   17.0334   -3.8801   -3.8599 N   0  0  0  0  0  0  0  0  0  0  0  0
   16.3032   -2.6477   -3.5502 C   0  0  1  0  0  0  0  0  0  0  0  0
   16.5794   -2.0795   -2.1254 C   0  0  0  0  0  0  0  0  0  0  0  0
   16.3348   -3.1633   -1.0617 C   0  0  0  0  0  0  0  0  0  0  0  0
   18.0160   -1.5604   -1.9636 C   0  0  0  0  0  0  0  0  0  0  0  0
   15.6123   -0.9207   -1.8362 C   0  0  0  0  0  0  0  0  0  0  0  0
   16.6684   -1.6857   -4.6983 C   0  0  0  0  0  0  0  0  0  0  0  0
   17.8394   -1.4520   -4.9744 O   0  0  0  0  0  0  0  0  0  0  0  0
   15.6144   -1.1449   -5.4335 N   0  0  0  0  0  0  0  0  0  0  0  0
   15.8590   -0.3719   -6.6419 C   0  0  2  0  0  0  0  0  0  0  0  0
   16.1977    1.0838   -6.3098 C   0  0  0  0  0  0  0  0  0  0  0  0
   15.5252    1.7652   -5.5475 O   0  0  0  0  0  0  0  0  0  0  0  0
   17.3192    1.5537   -6.9657 N   0  0  0  0  0  0  0  0  0  0  0  0
   17.8020    2.9089   -6.7586 C   0  0  0  0  0  0  0  0  0  0  0  0
   19.2375    3.1289   -7.1743 C   0  0  0  0  0  0  0  0  0  0  0  0
   20.1712    2.0992   -7.1628 C   0  0  0  0  0  0  0  0  0  0  0  0
   21.4887    2.3303   -7.5036 C   0  0  0  0  0  0  0  0  0  0  0  0
   21.9283    3.5985   -7.8500 C   0  0  0  0  0  0  0  0  0  0  0  0
   23.3268    3.8170   -8.1822 C   0  0  0  0  0  0  0  0  0  0  0  0
   24.3924    4.2021   -7.3816 C   0  0  0  0  0  0  0  0  0  0  0  0
   24.3445    4.5369   -5.9404 C   0  0  0  0  0  0  0  0  0  0  0  0
   25.6152    4.2500   -8.0206 N   0  0  0  0  0  0  0  0  0  0  0  0
   25.4652    3.9305   -9.2864 C   0  0  0  0  0  0  0  0  0  0  0  0
   23.8767    3.5616   -9.7896 S   0  0  0  0  0  0  0  0  0  0  0  0
   21.0075    4.6383   -7.8522 C   0  0  0  0  0  0  0  0  0  0  0  0
   19.6812    4.4043   -7.5181 C   0  0  0  0  0  0  0  0  0  0  0  0
   14.5516   -0.4663   -7.4090 C   0  0  0  0  0  0  0  0  0  0  0  0
   13.4893   -0.5922   -6.3271 C   0  0  1  0  0  0  0  0  0  0  0  0
   12.3559   -1.3194   -6.8001 O   0  0  0  0  0  0  0  0  0  0  0  0
   14.1945   -1.3730   -5.2300 C   0  0  0  0  0  0  0  0  0  0  0  0
   17.2592   -6.2304   -4.3881 C   0  0  0  0  0  0  0  0  0  0  0  0
   17.9861   -3.8077   -4.2057 H   0  0  0  0  0  0  0  0  0  0  0  0
   15.2419   -2.9001   -3.6071 H   0  0  0  0  0  0  0  0  0  0  0  0
   15.3265   -3.5832   -1.1408 H   0  0  0  0  0  0  0  0  0  0  0  0
   16.4361   -2.7601   -0.0488 H   0  0  0  0  0  0  0  0  0  0  0  0
   17.0488   -3.9877   -1.1463 H   0  0  0  0  0  0  0  0  0  0  0  0
   18.1989   -0.6627   -2.5614 H   0  0  0  0  0  0  0  0  0  0  0  0
   18.7477   -2.3128   -2.2616 H   0  0  0  0  0  0  0  0  0  0  0  0
   18.2304   -1.2935   -0.9240 H   0  0  0  0  0  0  0  0  0  0  0  0
   14.5666   -1.2377   -1.8981 H   0  0  0  0  0  0  0  0  0  0  0  0
   15.7431   -0.1027   -2.5521 H   0  0  0  0  0  0  0  0  0  0  0  0
   15.7750   -0.5034   -0.8367 H   0  0  0  0  0  0  0  0  0  0  0  0
   16.6806   -0.8242   -7.2096 H   0  0  0  0  0  0  0  0  0  0  0  0
   17.8251    0.9341   -7.5928 H   0  0  0  0  0  0  0  0  0  0  0  0
   17.1393    3.5640   -7.3348 H   0  0  0  0  0  0  0  0  0  0  0  0
   17.6879    3.1660   -5.6999 H   0  0  0  0  0  0  0  0  0  0  0  0
   19.8818    1.0909   -6.8888 H   0  0  0  0  0  0  0  0  0  0  0  0
   22.1772    1.4943   -7.5042 H   0  0  0  0  0  0  0  0  0  0  0  0
   25.3211    4.8757   -5.5825 H   0  0  0  0  0  0  0  0  0  0  0  0
   24.0605    3.6630   -5.3503 H   0  0  0  0  0  0  0  0  0  0  0  0
   23.6213    5.3345   -5.7482 H   0  0  0  0  0  0  0  0  0  0  0  0
   26.2950    3.9035   -9.9781 H   0  0  0  0  0  0  0  0  0  0  0  0
   21.3190    5.6446   -8.1162 H   0  0  0  0  0  0  0  0  0  0  0  0
   18.9861    5.2390   -7.5232 H   0  0  0  0  0  0  0  0  0  0  0  0
   14.3672    0.3859   -8.0718 H   0  0  0  0  0  0  0  0  0  0  0  0
   14.5603   -1.3692   -8.0285 H   0  0  0  0  0  0  0  0  0  0  0  0
   13.1622    0.3883   -5.9635 H   0  0  0  0  0  0  0  0  0  0  0  0
   11.9130   -0.7834   -7.4834 H   0  0  0  0  0  0  0  0  0  0  0  0
   13.9854   -2.4454   -5.2938 H   0  0  0  0  0  0  0  0  0  0  0  0
   13.8973   -1.0299   -4.2350 H   0  0  0  0  0  0  0  0  0  0  0  0
   16.6820   -6.7338   -5.1698 H   0  0  0  0  0  0  0  0  0  0  0  0
   17.5084   -6.9487   -3.6043 H   0  0  0  0  0  0  0  0  0  0  0  0
   18.1849   -5.8557   -4.8347 H   0  0  0  0  0  0  0  0  0  0  0  0
  1  2  2  0  0  0  0
  2  3  1  0  0  0  0
  2 33  1  0  0  0  0
  4  3  1  0  0  0  0
  3 34  1  0  0  0  0
  4  5  1  0  0  0  0
  4 35  1  0  0  0  0
  4  9  1  0  0  0  0
  5  6  1  0  0  0  0
  5  7  1  0  0  0  0
  5  8  1  0  0  0  0
  6 36  1  0  0  0  0
  6 37  1  0  0  0  0
  6 38  1  0  0  0  0
  7 39  1  0  0  0  0
  7 40  1  0  0  0  0
  7 41  1  0  0  0  0
  8 42  1  0  0  0  0
  8 43  1  0  0  0  0
  8 44  1  0  0  0  0
  9 10  2  0  0  0  0
  9 11  1  0  0  0  0
 11 32  1  0  0  0  0
 12 11  1  0  0  0  0
 12 29  1  0  0  0  0
 12 45  1  0  0  0  0
 12 13  1  0  0  0  0
 13 14  2  0  0  0  0
 13 15  1  0  0  0  0
 15 46  1  0  0  0  0
 15 16  1  0  0  0  0
 16 47  1  0  0  0  0
 16 48  1  0  0  0  0
 16 17  1  0  0  0  0
 17 18  1  0  0  0  0
 17 28  2  0  0  0  0
 18 49  1  0  0  0  0
 18 19  2  0  0  0  0
 19 50  1  0  0  0  0
 19 20  1  0  0  0  0
 20 27  2  0  0  0  0
 20 21  1  0  0  0  0
 21 22  2  0  0  0  0
 21 26  1  0  0  0  0
 22 23  1  0  0  0  0
 22 24  1  0  0  0  0
 23 51  1  0  0  0  0
 23 52  1  0  0  0  0
 23 53  1  0  0  0  0
 24 25  2  0  0  0  0
 25 54  1  0  0  0  0
 25 26  1  0  0  0  0
 27 55  1  0  0  0  0
 27 28  1  0  0  0  0
 28 56  1  0  0  0  0
 30 29  1  0  0  0  0
 29 57  1  0  0  0  0
 29 58  1  0  0  0  0
 30 32  1  0  0  0  0
 30 59  1  0  0  0  0
 30 31  1  0  0  0  0
 31 60  1  0  0  0  0
 32 61  1  0  0  0  0
 32 62  1  0  0  0  0
 33 63  1  0  0  0  0
 33 64  1  0  0  0  0
 33 65  1  0  0  0  0
M  ZZC   1 o1
M  ZZC   2 c1
M  ZZC   3 n1
M  ZZC   4 c2
M  ZZC   5 c3
M  ZZC   6 c4
M  ZZC   7 c5
M  ZZC   8 c6
M  ZZC   9 c7
M  ZZC  10 o2
M  ZZC  11 n2
M  ZZC  12 c8
M  ZZC  13 c9
M  ZZC  14 o3
M  ZZC  15 n3
M  ZZC  16 c10
M  ZZC  17 c11
M  ZZC  18 c12
M  ZZC  19 c13
M  ZZC  20 c14
M  ZZC  21 c15
M  ZZC  22 c16
M  ZZC  23 c17
M  ZZC  24 n4
M  ZZC  25 c18
M  ZZC  26 s1
M  ZZC  27 c19
M  ZZC  28 c20
M  ZZC  29 c21
M  ZZC  30 c22
M  ZZC  31 o4
M  ZZC  32 c23
M  ZZC  33 c24
M  ZZC  34 h11
M  ZZC  35 h21
M  ZZC  36 h41
M  ZZC  37 h42
M  ZZC  38 h43
M  ZZC  39 h51
M  ZZC  40 h52
M  ZZC  41 h53
M  ZZC  42 h61
M  ZZC  43 h62
M  ZZC  44 h63
M  ZZC  45 h81
M  ZZC  46 h31
M  ZZC  47 h101
M  ZZC  48 h102
M  ZZC  49 h121
M  ZZC  50 h131
M  ZZC  51 h171
M  ZZC  52 h172
M  ZZC  53 h173
M  ZZC  54 h181
M  ZZC  55 h191
M  ZZC  56 h201
M  ZZC  57 h211
M  ZZC  58 h212
M  ZZC  59 h221
M  ZZC  60 h01
M  ZZC  61 h231
M  ZZC  62 h232
M  ZZC  63 h241
M  ZZC  64 h242
M  ZZC  65 h243
M  ZZM   1 7
M  ZZI   1 81
M  ZZM   2 3
M  ZZI   2 121
M  ZZM   3 10
M  ZZI   3 211
M  ZZM   4 1
M  ZZI   4 113
M  ZZM   5 1
M  ZZI   5 110
M  ZZM   6 1
M  ZZI   6 111
M  ZZM   7 1
M  ZZI   7 111
M  ZZM   8 1
M  ZZI   8 111
M  ZZM   9 3
M  ZZI   9 121
M  ZZM  10 7
M  ZZI  10 81
M  ZZM  11 10
M  ZZI  11 192
M  ZZM  12 1
M  ZZI  12 113
M  ZZM  13 3
M  ZZI  13 121
M  ZZM  14 7
M  ZZI  14 81
M  ZZM  15 10
M  ZZI  15 211
M  ZZM  16 1
M  ZZI  16 112
M  ZZM  17 37
M  ZZI  17 124
M  ZZM  18 37
M  ZZI  18 125
M  ZZM  19 37
M  ZZI  19 125
M  ZZM  20 37
M  ZZI  20 124
M  ZZM  21 63
M  ZZI  21 104
M  ZZM  22 64
M  ZZI  22 105
M  ZZM  23 1
M  ZZI  23 111
M  ZZM  24 66
M  ZZI  24 222
M  ZZM  25 63
M  ZZI  25 104
M  ZZM  26 44
M  ZZI  26 248
M  ZZM  27 37
M  ZZI  27 125
M  ZZM  28 37
M  ZZI  28 125
M  ZZM  29 1
M  ZZI  29 112
M  ZZM  30 1
M  ZZI  30 113
M  ZZM  31 6
M  ZZI  31 60
M  ZZM  32 1
M  ZZI  32 112
M  ZZM  33 1
M  ZZI  33 111
M  ZZM  34 28
M  ZZI  34 11
M  ZZM  35 5
M  ZZI  35 1
M  ZZM  36 5
M  ZZI  36 1
M  ZZM  37 5
M  ZZI  37 1
M  ZZM  38 5
M  ZZI  38 1
M  ZZM  39 5
M  ZZI  39 1
M  ZZM  40 5
M  ZZI  40 1
M  ZZM  41 5
M  ZZI  41 1
M  ZZM  42 5
M  ZZI  42 1
M  ZZM  43 5
M  ZZI  43 1
M  ZZM  44 5
M  ZZI  44 1
M  ZZM  45 5
M  ZZI  45 1
M  ZZM  46 28
M  ZZI  46 11
M  ZZM  47 5
M  ZZI  47 1
M  ZZM  48 5
M  ZZI  48 1
M  ZZM  49 5
M  ZZI  49 1
M  ZZM  50 5
M  ZZI  50 1
M  ZZM  51 5
M  ZZI  51 1
M  ZZM  52 5
M  ZZI  52 1
M  ZZM  53 5
M  ZZI  53 1
M  ZZM  54 5
M  ZZI  54 1
M  ZZM  55 5
M  ZZI  55 1
M  ZZM  56 5
M  ZZI  56 1
M  ZZM  57 5
M  ZZI  57 1
M  ZZM  58 5
M  ZZI  58 1
M  ZZM  59 5
M  ZZI  59 1
M  ZZM  60 21
M  ZZI  60 20
M  ZZM  61 5
M  ZZI  61 1
M  ZZM  62 5
M  ZZI  62 1
M  ZZM  63 5
M  ZZI  63 1
M  ZZM  64 5
M  ZZI  64 1
M  ZZM  65 5
M  ZZI  65 1
M  END
> <IX>
1

> <NAME>
VHL_5EU1_9.pdb

> <Score>
-15.985494

> <Natom>
65

> <Nflex>
8

> <Hbond>
-4.891575

> <Hphob>
-6.312098

> <VwInt>
-32.163073

> <Dsolv>
17.537116

> <SolEl>
18.26451

> <Eintl>
4.624928

> <RecConf>
ND

> <projPath>
VHL_maps/

> <NAME_>
VHL_5EU1_9.pdb

$$$$
