VHL_1ERR_24.pdb
  MOLSOFT 04032206353D

 68 70  0  0  1  0  0  0  0  0999 V2000
   15.8077   -6.2212   -5.4586 O   0  0  0  0  0  0  0  0  0  0  0  0
   16.8910   -5.8974   -5.0035 C   0  0  0  0  0  0  0  0  0  0  0  0
   17.1472   -4.7233   -4.3228 N   0  0  0  0  0  0  0  0  0  0  0  0
   16.1656   -3.6529   -4.0809 C   0  0  1  0  0  0  0  0  0  0  0  0
   15.8551   -3.4842   -2.5642 C   0  0  0  0  0  0  0  0  0  0  0  0
   17.0855   -3.0383   -1.7611 C   0  0  0  0  0  0  0  0  0  0  0  0
   15.3577   -4.8307   -2.0237 C   0  0  0  0  0  0  0  0  0  0  0  0
   14.7414   -2.4635   -2.3042 C   0  0  0  0  0  0  0  0  0  0  0  0
   16.7590   -2.4241   -4.7983 C   0  0  0  0  0  0  0  0  0  0  0  0
   17.9665   -2.2179   -4.7870 O   0  0  0  0  0  0  0  0  0  0  0  0
   15.8942   -1.5729   -5.4912 N   0  0  0  0  0  0  0  0  0  0  0  0
   16.4232   -0.6123   -6.4470 C   0  0  2  0  0  0  0  0  0  0  0  0
   16.9159    0.6683   -5.7697 C   0  0  0  0  0  0  0  0  0  0  0  0
   16.5214    1.0294   -4.6692 O   0  0  0  0  0  0  0  0  0  0  0  0
   17.8159    1.3815   -6.5449 N   0  0  0  0  0  0  0  0  0  0  0  0
   18.4239    2.6312   -6.1069 C   0  0  1  0  0  0  0  0  0  0  0  0
   19.8016    2.7976   -6.7533 C   0  0  0  0  0  0  0  0  0  0  0  0
   17.4967    3.8133   -6.3453 C   0  0  0  0  0  0  0  0  0  0  0  0
   17.5369    4.5885   -7.5046 C   0  0  0  0  0  0  0  0  0  0  0  0
   16.6580    5.6409   -7.6956 C   0  0  0  0  0  0  0  0  0  0  0  0
   15.7071    5.9590   -6.7343 C   0  0  0  0  0  0  0  0  0  0  0  0
   14.7742    7.0531   -6.9550 C   0  0  0  0  0  0  0  0  0  0  0  0
   13.8278    7.2318   -7.9528 C   0  0  0  0  0  0  0  0  0  0  0  0
   13.5074    6.2826   -9.0404 C   0  0  0  0  0  0  0  0  0  0  0  0
   13.1334    8.4227   -7.8947 N   0  0  0  0  0  0  0  0  0  0  0  0
   13.5440    9.1202   -6.8591 C   0  0  0  0  0  0  0  0  0  0  0  0
   14.7549    8.4049   -5.8931 S   0  0  0  0  0  0  0  0  0  0  0  0
   15.6608    5.1979   -5.5740 C   0  0  0  0  0  0  0  0  0  0  0  0
   16.5421    4.1479   -5.3857 C   0  0  0  0  0  0  0  0  0  0  0  0
   15.2634   -0.3557   -7.3964 C   0  0  0  0  0  0  0  0  0  0  0  0
   14.0322   -0.5083   -6.5194 C   0  0  1  0  0  0  0  0  0  0  0  0
   12.9317   -0.9947   -7.2856 O   0  0  0  0  0  0  0  0  0  0  0  0
   14.4438   -1.5233   -5.4623 C   0  0  0  0  0  0  0  0  0  0  0  0
   18.0881   -6.7986   -5.1255 C   0  0  0  0  0  0  0  0  0  0  0  0
   18.1075   -4.5395   -4.0551 H   0  0  0  0  0  0  0  0  0  0  0  0
   15.2432   -3.9434   -4.5814 H   0  0  0  0  0  0  0  0  0  0  0  0
   17.9135   -3.7358   -1.8722 H   0  0  0  0  0  0  0  0  0  0  0  0
   16.8625   -2.9759   -0.6911 H   0  0  0  0  0  0  0  0  0  0  0  0
   17.4415   -2.0522   -2.0752 H   0  0  0  0  0  0  0  0  0  0  0  0
   14.4800   -5.1850   -2.5738 H   0  0  0  0  0  0  0  0  0  0  0  0
   15.0726   -4.7506   -0.9724 H   0  0  0  0  0  0  0  0  0  0  0  0
   16.1215   -5.6070   -2.0998 H   0  0  0  0  0  0  0  0  0  0  0  0
   14.4773   -2.4226   -1.2430 H   0  0  0  0  0  0  0  0  0  0  0  0
   13.8434   -2.6890   -2.8858 H   0  0  0  0  0  0  0  0  0  0  0  0
   15.0503   -1.4533   -2.5924 H   0  0  0  0  0  0  0  0  0  0  0  0
   17.2665   -1.0575   -6.9796 H   0  0  0  0  0  0  0  0  0  0  0  0
   18.1139    0.9871   -7.4321 H   0  0  0  0  0  0  0  0  0  0  0  0
   18.5909    2.5475   -5.0266 H   0  0  0  0  0  0  0  0  0  0  0  0
   20.4564    1.9612   -6.5007 H   0  0  0  0  0  0  0  0  0  0  0  0
   20.2903    3.7190   -6.4214 H   0  0  0  0  0  0  0  0  0  0  0  0
   19.7506    2.8174   -7.8447 H   0  0  0  0  0  0  0  0  0  0  0  0
   18.2630    4.3874   -8.2836 H   0  0  0  0  0  0  0  0  0  0  0  0
   16.7263    6.2234   -8.6107 H   0  0  0  0  0  0  0  0  0  0  0  0
   14.2926    6.2885   -9.8002 H   0  0  0  0  0  0  0  0  0  0  0  0
   12.5661    6.5488   -9.5229 H   0  0  0  0  0  0  0  0  0  0  0  0
   13.4042    5.2627   -8.6579 H   0  0  0  0  0  0  0  0  0  0  0  0
   13.1443   10.0945   -6.6204 H   0  0  0  0  0  0  0  0  0  0  0  0
   14.9231    5.4091   -4.8050 H   0  0  0  0  0  0  0  0  0  0  0  0
   16.4716    3.5768   -4.4647 H   0  0  0  0  0  0  0  0  0  0  0  0
   15.3006    0.6255   -7.8814 H   0  0  0  0  0  0  0  0  0  0  0  0
   15.2513   -1.1069   -8.1947 H   0  0  0  0  0  0  0  0  0  0  0  0
   13.7603    0.4531   -6.0676 H   0  0  0  0  0  0  0  0  0  0  0  0
   12.1101   -0.7244   -6.8385 H   0  0  0  0  0  0  0  0  0  0  0  0
   14.0189   -2.5149   -5.6164 H   0  0  0  0  0  0  0  0  0  0  0  0
   14.1153   -1.1703   -4.4853 H   0  0  0  0  0  0  0  0  0  0  0  0
   18.0111   -7.4395   -6.0092 H   0  0  0  0  0  0  0  0  0  0  0  0
   18.1539   -7.4374   -4.2398 H   0  0  0  0  0  0  0  0  0  0  0  0
   18.9889   -6.1839   -5.1926 H   0  0  0  0  0  0  0  0  0  0  0  0
  1  2  2  0  0  0  0
  2  3  1  0  0  0  0
  2 34  1  0  0  0  0
  4  3  1  0  0  0  0
  3 35  1  0  0  0  0
  4  5  1  0  0  0  0
  4 36  1  0  0  0  0
  4  9  1  0  0  0  0
  5  6  1  0  0  0  0
  5  7  1  0  0  0  0
  5  8  1  0  0  0  0
  6 37  1  0  0  0  0
  6 38  1  0  0  0  0
  6 39  1  0  0  0  0
  7 40  1  0  0  0  0
  7 41  1  0  0  0  0
  7 42  1  0  0  0  0
  8 43  1  0  0  0  0
  8 44  1  0  0  0  0
  8 45  1  0  0  0  0
  9 10  2  0  0  0  0
  9 11  1  0  0  0  0
 11 33  1  0  0  0  0
 12 11  1  0  0  0  0
 12 30  1  0  0  0  0
 12 46  1  0  0  0  0
 12 13  1  0  0  0  0
 13 14  2  0  0  0  0
 13 15  1  0  0  0  0
 15 47  1  0  0  0  0
 16 15  1  0  0  0  0
 16 48  1  0  0  0  0
 16 17  1  0  0  0  0
 16 18  1  0  0  0  0
 17 49  1  0  0  0  0
 17 50  1  0  0  0  0
 17 51  1  0  0  0  0
 18 19  1  0  0  0  0
 18 29  2  0  0  0  0
 19 52  1  0  0  0  0
 19 20  2  0  0  0  0
 20 53  1  0  0  0  0
 20 21  1  0  0  0  0
 21 28  2  0  0  0  0
 21 22  1  0  0  0  0
 22 23  2  0  0  0  0
 22 27  1  0  0  0  0
 23 24  1  0  0  0  0
 23 25  1  0  0  0  0
 24 54  1  0  0  0  0
 24 55  1  0  0  0  0
 24 56  1  0  0  0  0
 25 26  2  0  0  0  0
 26 57  1  0  0  0  0
 26 27  1  0  0  0  0
 28 58  1  0  0  0  0
 28 29  1  0  0  0  0
 29 59  1  0  0  0  0
 31 30  1  0  0  0  0
 30 60  1  0  0  0  0
 30 61  1  0  0  0  0
 31 33  1  0  0  0  0
 31 62  1  0  0  0  0
 31 32  1  0  0  0  0
 32 63  1  0  0  0  0
 33 64  1  0  0  0  0
 33 65  1  0  0  0  0
 34 66  1  0  0  0  0
 34 67  1  0  0  0  0
 34 68  1  0  0  0  0
M  ZZC   1 o1
M  ZZC   2 c1
M  ZZC   3 n1
M  ZZC   4 c2
M  ZZC   5 c3
M  ZZC   6 c4
M  ZZC   7 c5
M  ZZC   8 c6
M  ZZC   9 c7
M  ZZC  10 o2
M  ZZC  11 n2
M  ZZC  12 c8
M  ZZC  13 c9
M  ZZC  14 o3
M  ZZC  15 n3
M  ZZC  16 c10
M  ZZC  17 c11
M  ZZC  18 c12
M  ZZC  19 c13
M  ZZC  20 c14
M  ZZC  21 c15
M  ZZC  22 c16
M  ZZC  23 c17
M  ZZC  24 c18
M  ZZC  25 n4
M  ZZC  26 c19
M  ZZC  27 s1
M  ZZC  28 c20
M  ZZC  29 c21
M  ZZC  30 c22
M  ZZC  31 c23
M  ZZC  32 o4
M  ZZC  33 c24
M  ZZC  34 c25
M  ZZC  35 h11
M  ZZC  36 h21
M  ZZC  37 h41
M  ZZC  38 h42
M  ZZC  39 h43
M  ZZC  40 h51
M  ZZC  41 h52
M  ZZC  42 h53
M  ZZC  43 h61
M  ZZC  44 h62
M  ZZC  45 h63
M  ZZC  46 h81
M  ZZC  47 h31
M  ZZC  48 h101
M  ZZC  49 h111
M  ZZC  50 h112
M  ZZC  51 h113
M  ZZC  52 h131
M  ZZC  53 h141
M  ZZC  54 h181
M  ZZC  55 h182
M  ZZC  56 h183
M  ZZC  57 h191
M  ZZC  58 h201
M  ZZC  59 h211
M  ZZC  60 h221
M  ZZC  61 h222
M  ZZC  62 h231
M  ZZC  63 h01
M  ZZC  64 h241
M  ZZC  65 h242
M  ZZC  66 h251
M  ZZC  67 h252
M  ZZC  68 h253
M  ZZM   1 7
M  ZZI   1 81
M  ZZM   2 3
M  ZZI   2 121
M  ZZM   3 10
M  ZZI   3 211
M  ZZM   4 1
M  ZZI   4 113
M  ZZM   5 1
M  ZZI   5 110
M  ZZM   6 1
M  ZZI   6 111
M  ZZM   7 1
M  ZZI   7 111
M  ZZM   8 1
M  ZZI   8 111
M  ZZM   9 3
M  ZZI   9 121
M  ZZM  10 7
M  ZZI  10 81
M  ZZM  11 10
M  ZZI  11 192
M  ZZM  12 1
M  ZZI  12 113
M  ZZM  13 3
M  ZZI  13 121
M  ZZM  14 7
M  ZZI  14 81
M  ZZM  15 10
M  ZZI  15 211
M  ZZM  16 1
M  ZZI  16 113
M  ZZM  17 1
M  ZZI  17 111
M  ZZM  18 37
M  ZZI  18 124
M  ZZM  19 37
M  ZZI  19 125
M  ZZM  20 37
M  ZZI  20 125
M  ZZM  21 37
M  ZZI  21 124
M  ZZM  22 63
M  ZZI  22 104
M  ZZM  23 64
M  ZZI  23 105
M  ZZM  24 1
M  ZZI  24 111
M  ZZM  25 66
M  ZZI  25 222
M  ZZM  26 63
M  ZZI  26 104
M  ZZM  27 44
M  ZZI  27 248
M  ZZM  28 37
M  ZZI  28 125
M  ZZM  29 37
M  ZZI  29 125
M  ZZM  30 1
M  ZZI  30 112
M  ZZM  31 1
M  ZZI  31 113
M  ZZM  32 6
M  ZZI  32 60
M  ZZM  33 1
M  ZZI  33 112
M  ZZM  34 1
M  ZZI  34 111
M  ZZM  35 28
M  ZZI  35 11
M  ZZM  36 5
M  ZZI  36 1
M  ZZM  37 5
M  ZZI  37 1
M  ZZM  38 5
M  ZZI  38 1
M  ZZM  39 5
M  ZZI  39 1
M  ZZM  40 5
M  ZZI  40 1
M  ZZM  41 5
M  ZZI  41 1
M  ZZM  42 5
M  ZZI  42 1
M  ZZM  43 5
M  ZZI  43 1
M  ZZM  44 5
M  ZZI  44 1
M  ZZM  45 5
M  ZZI  45 1
M  ZZM  46 5
M  ZZI  46 1
M  ZZM  47 28
M  ZZI  47 11
M  ZZM  48 5
M  ZZI  48 1
M  ZZM  49 5
M  ZZI  49 1
M  ZZM  50 5
M  ZZI  50 1
M  ZZM  51 5
M  ZZI  51 1
M  ZZM  52 5
M  ZZI  52 1
M  ZZM  53 5
M  ZZI  53 1
M  ZZM  54 5
M  ZZI  54 1
M  ZZM  55 5
M  ZZI  55 1
M  ZZM  56 5
M  ZZI  56 1
M  ZZM  57 5
M  ZZI  57 1
M  ZZM  58 5
M  ZZI  58 1
M  ZZM  59 5
M  ZZI  59 1
M  ZZM  60 5
M  ZZI  60 1
M  ZZM  61 5
M  ZZI  61 1
M  ZZM  62 5
M  ZZI  62 1
M  ZZM  63 21
M  ZZI  63 20
M  ZZM  64 5
M  ZZI  64 1
M  ZZM  65 5
M  ZZI  65 1
M  ZZM  66 5
M  ZZI  66 1
M  ZZM  67 5
M  ZZI  67 1
M  ZZM  68 5
M  ZZI  68 1
M  END
> <IX>
1

> <NAME>
VHL_1ERR_24.pdb

> <Score>
-2.879006

> <Natom>
68

> <Nflex>
8

> <Hbond>
-5.032313

> <Hphob>
-6.747792

> <VwInt>
-28.242709

> <Dsolv>
22.82039

> <SolEl>
23.310143

> <Eintl>
8.860816

> <RecConf>
ND

> <projPath>
VHL_maps/

> <NAME_>
VHL_1ERR_24.pdb

$$$$
