VHL_5T8E_4.pdb
  MOLSOFT 04032206443D

 75 78  0  0  1  0  0  0  0  0999 V2000
   16.2357   -2.3888    2.1356 Br  0  0  0  0  0  0  0  0  0  0  0  0
   16.1660   -2.2350    0.2447 C   0  0  0  0  0  0  0  0  0  0  0  0
   17.3254   -2.0207   -0.4777 C   0  0  0  0  0  0  0  0  0  0  0  0
   17.2653   -1.9351   -1.8576 C   0  0  0  0  0  0  0  0  0  0  0  0
   16.0534   -2.0868   -2.5373 C   0  0  0  0  0  0  0  0  0  0  0  0
   15.9706   -2.0793   -4.0533 C   0  0  1  0  0  0  0  0  0  0  0  0
   16.1840   -0.7441   -4.5767 N   0  0  0  0  0  0  0  0  0  0  0  0
   15.7639   -0.3763   -5.8432 C   0  0  0  0  0  0  0  0  0  0  0  0
   15.1024   -1.0942   -6.5830 O   0  0  0  0  0  0  0  0  0  0  0  0
   16.1793    1.0494   -6.2103 C   0  0  2  0  0  0  0  0  0  0  0  0
   15.2382    1.9863   -5.6147 N   0  0  0  0  0  0  0  0  0  0  0  0
   15.3960    2.4048   -4.2928 C   0  0  0  0  0  0  0  0  0  0  0  0
   16.3536    2.0331   -3.6255 O   0  0  0  0  0  0  0  0  0  0  0  0
   14.3302    3.3323   -3.7023 C   0  0  2  0  0  0  0  0  0  0  0  0
   14.9310    4.7240   -3.3860 C   0  0  0  0  0  0  0  0  0  0  0  0
   13.9016    5.6631   -2.7504 C   0  0  0  0  0  0  0  0  0  0  0  0
   15.4921    5.3970   -4.6403 C   0  0  0  0  0  0  0  0  0  0  0  0
   13.7740    2.6732   -2.4757 C   0  0  0  0  0  0  0  0  0  0  0  0
   12.4363    2.8277   -2.2749 O   0  0  0  0  0  0  0  0  0  0  0  0
   12.0660    2.2176   -1.0759 N   0  0  0  0  0  0  0  0  0  0  0  0
   13.1886    1.6719   -0.5929 C   0  0  0  0  0  0  0  0  0  0  0  0
   13.1700    0.9146    0.6770 C   0  0  0  0  0  0  0  0  0  0  0  0
   14.2913    1.9376   -1.4330 C   0  0  0  0  0  0  0  0  0  0  0  0
   14.2580    2.4369   -6.5895 C   0  0  0  0  0  0  0  0  0  0  0  0
   14.6714    1.8108   -7.9207 C   0  0  1  0  0  0  0  0  0  0  0  0
   14.6801    2.7672   -8.9837 O   0  0  0  0  0  0  0  0  0  0  0  0
   16.0957    1.3328   -7.6960 C   0  0  0  0  0  0  0  0  0  0  0  0
   16.9675   -3.0460   -4.7043 C   0  0  0  0  0  0  0  0  0  0  0  0
   16.5423   -4.4842   -4.5391 C   0  0  0  0  0  0  0  0  0  0  0  0
   15.5976   -4.7902   -3.8251 O   0  0  0  0  0  0  0  0  0  0  0  0
   17.2670   -5.4105   -5.2814 N   0  0  0  0  0  0  0  0  0  0  0  0
   18.4817   -5.1185   -6.0400 C   0  0  0  0  0  0  0  0  0  0  0  0
   19.5611   -6.1571   -5.8198 C   0  0  0  0  0  0  0  0  0  0  0  0
   19.0314   -7.5719   -5.9145 C   0  0  0  0  0  0  0  0  0  0  0  0
   17.8036   -7.7781   -5.0448 C   0  0  0  0  0  0  0  0  0  0  0  0
   16.7491   -6.7599   -5.4049 C   0  0  0  0  0  0  0  0  0  0  0  0
   14.8948   -2.2668   -1.7841 C   0  0  0  0  0  0  0  0  0  0  0  0
   14.9513   -2.3426   -0.4044 C   0  0  0  0  0  0  0  0  0  0  0  0
   18.2840   -1.9254    0.0234 H   0  0  0  0  0  0  0  0  0  0  0  0
   18.1890   -1.7632   -2.4014 H   0  0  0  0  0  0  0  0  0  0  0  0
   14.9563   -2.3695   -4.3553 H   0  0  0  0  0  0  0  0  0  0  0  0
   16.6378   -0.0492   -3.9870 H   0  0  0  0  0  0  0  0  0  0  0  0
   17.1961    1.2247   -5.8380 H   0  0  0  0  0  0  0  0  0  0  0  0
   13.5111    3.4558   -4.4159 H   0  0  0  0  0  0  0  0  0  0  0  0
   15.7583    4.6089   -2.6757 H   0  0  0  0  0  0  0  0  0  0  0  0
   14.3268    6.6572   -2.5828 H   0  0  0  0  0  0  0  0  0  0  0  0
   13.5642    5.2961   -1.7772 H   0  0  0  0  0  0  0  0  0  0  0  0
   13.0213    5.7835   -3.3901 H   0  0  0  0  0  0  0  0  0  0  0  0
   16.2765    4.7833   -5.0938 H   0  0  0  0  0  0  0  0  0  0  0  0
   15.9310    6.3722   -4.4078 H   0  0  0  0  0  0  0  0  0  0  0  0
   14.7214    5.5444   -5.4020 H   0  0  0  0  0  0  0  0  0  0  0  0
   12.7341   -0.0774    0.5264 H   0  0  0  0  0  0  0  0  0  0  0  0
   12.5809    1.4384    1.4359 H   0  0  0  0  0  0  0  0  0  0  0  0
   14.1807    0.7843    1.0739 H   0  0  0  0  0  0  0  0  0  0  0  0
   15.3194    1.6385   -1.2868 H   0  0  0  0  0  0  0  0  0  0  0  0
   13.2681    2.0870   -6.2790 H   0  0  0  0  0  0  0  0  0  0  0  0
   14.2412    3.5302   -6.6256 H   0  0  0  0  0  0  0  0  0  0  0  0
   14.0146    0.9771   -8.1918 H   0  0  0  0  0  0  0  0  0  0  0  0
   13.7554    2.9608   -9.2223 H   0  0  0  0  0  0  0  0  0  0  0  0
   16.7971    2.1351   -7.9482 H   0  0  0  0  0  0  0  0  0  0  0  0
   16.3513    0.4744   -8.3272 H   0  0  0  0  0  0  0  0  0  0  0  0
   17.0219   -2.8457   -5.7795 H   0  0  0  0  0  0  0  0  0  0  0  0
   17.9755   -2.9193   -4.2998 H   0  0  0  0  0  0  0  0  0  0  0  0
   18.2139   -5.1096   -7.0922 H   0  0  0  0  0  0  0  0  0  0  0  0
   18.8802   -4.1321   -5.8037 H   0  0  0  0  0  0  0  0  0  0  0  0
   20.3734   -6.0072   -6.5368 H   0  0  0  0  0  0  0  0  0  0  0  0
   19.9809   -6.0166   -4.8291 H   0  0  0  0  0  0  0  0  0  0  0  0
   18.7621   -7.7682   -6.9525 H   0  0  0  0  0  0  0  0  0  0  0  0
   19.8204   -8.2739   -5.6302 H   0  0  0  0  0  0  0  0  0  0  0  0
   17.4084   -8.7896   -5.1736 H   0  0  0  0  0  0  0  0  0  0  0  0
   18.0656   -7.6606   -3.9914 H   0  0  0  0  0  0  0  0  0  0  0  0
   15.8713   -6.8782   -4.7786 H   0  0  0  0  0  0  0  0  0  0  0  0
   16.4266   -6.9012   -6.4392 H   0  0  0  0  0  0  0  0  0  0  0  0
   13.9316   -2.3754   -2.2746 H   0  0  0  0  0  0  0  0  0  0  0  0
   14.0412   -2.4978    0.1613 H   0  0  0  0  0  0  0  0  0  0  0  0
  2  1  1  0  0  0  0
  2  3  1  0  0  0  0
  2 38  2  0  0  0  0
  3 39  1  0  0  0  0
  3  4  2  0  0  0  0
  4 40  1  0  0  0  0
  4  5  1  0  0  0  0
  5 37  2  0  0  0  0
  6  5  1  0  0  0  0
  6 41  1  0  0  0  0
  6 28  1  0  0  0  0
  6  7  1  0  0  0  0
  7 42  1  0  0  0  0
  7  8  1  0  0  0  0
  8  9  2  0  0  0  0
 10  8  1  0  0  0  0
 10 43  1  0  0  0  0
 10 27  1  0  0  0  0
 10 11  1  0  0  0  0
 11 24  1  0  0  0  0
 11 12  1  0  0  0  0
 12 13  2  0  0  0  0
 14 12  1  0  0  0  0
 14 44  1  0  0  0  0
 14 15  1  0  0  0  0
 14 18  1  0  0  0  0
 15 45  1  0  0  0  0
 15 17  1  0  0  0  0
 15 16  1  0  0  0  0
 16 46  1  0  0  0  0
 16 47  1  0  0  0  0
 16 48  1  0  0  0  0
 17 49  1  0  0  0  0
 17 50  1  0  0  0  0
 17 51  1  0  0  0  0
 18 23  2  0  0  0  0
 18 19  1  0  0  0  0
 19 20  1  0  0  0  0
 20 21  2  0  0  0  0
 21 23  1  0  0  0  0
 21 22  1  0  0  0  0
 22 52  1  0  0  0  0
 22 53  1  0  0  0  0
 22 54  1  0  0  0  0
 23 55  1  0  0  0  0
 25 24  1  0  0  0  0
 24 56  1  0  0  0  0
 24 57  1  0  0  0  0
 25 27  1  0  0  0  0
 25 58  1  0  0  0  0
 25 26  1  0  0  0  0
 26 59  1  0  0  0  0
 27 60  1  0  0  0  0
 27 61  1  0  0  0  0
 28 62  1  0  0  0  0
 28 63  1  0  0  0  0
 28 29  1  0  0  0  0
 29 30  2  0  0  0  0
 29 31  1  0  0  0  0
 31 32  1  0  0  0  0
 31 36  1  0  0  0  0
 32 64  1  0  0  0  0
 32 65  1  0  0  0  0
 32 33  1  0  0  0  0
 33 66  1  0  0  0  0
 33 67  1  0  0  0  0
 33 34  1  0  0  0  0
 34 68  1  0  0  0  0
 34 69  1  0  0  0  0
 34 35  1  0  0  0  0
 35 70  1  0  0  0  0
 35 71  1  0  0  0  0
 35 36  1  0  0  0  0
 36 72  1  0  0  0  0
 36 73  1  0  0  0  0
 37 74  1  0  0  0  0
 37 38  1  0  0  0  0
 38 75  1  0  0  0  0
M  ZZC   1 &Br1
M  ZZC   2 c1
M  ZZC   3 c2
M  ZZC   4 c3
M  ZZC   5 c4
M  ZZC   6 c5
M  ZZC   7 n1
M  ZZC   8 c6
M  ZZC   9 o1
M  ZZC  10 c7
M  ZZC  11 n2
M  ZZC  12 c8
M  ZZC  13 o2
M  ZZC  14 c9
M  ZZC  15 c10
M  ZZC  16 c11
M  ZZC  17 c12
M  ZZC  18 c13
M  ZZC  19 o3
M  ZZC  20 n3
M  ZZC  21 c14
M  ZZC  22 c15
M  ZZC  23 c16
M  ZZC  24 c17
M  ZZC  25 c18
M  ZZC  26 o4
M  ZZC  27 c19
M  ZZC  28 c20
M  ZZC  29 c21
M  ZZC  30 o5
M  ZZC  31 n4
M  ZZC  32 c22
M  ZZC  33 c23
M  ZZC  34 c24
M  ZZC  35 c25
M  ZZC  36 c26
M  ZZC  37 c27
M  ZZC  38 c28
M  ZZC  39 h21
M  ZZC  40 h31
M  ZZC  41 h51
M  ZZC  42 h11
M  ZZC  43 h71
M  ZZC  44 h91
M  ZZC  45 h101
M  ZZC  46 h111
M  ZZC  47 h112
M  ZZC  48 h113
M  ZZC  49 h121
M  ZZC  50 h122
M  ZZC  51 h123
M  ZZC  52 h151
M  ZZC  53 h152
M  ZZC  54 h153
M  ZZC  55 h161
M  ZZC  56 h171
M  ZZC  57 h172
M  ZZC  58 h181
M  ZZC  59 h41
M  ZZC  60 h191
M  ZZC  61 h192
M  ZZC  62 h201
M  ZZC  63 h202
M  ZZC  64 h221
M  ZZC  65 h222
M  ZZC  66 h231
M  ZZC  67 h232
M  ZZC  68 h241
M  ZZC  69 h242
M  ZZC  70 h251
M  ZZC  71 h252
M  ZZC  72 h261
M  ZZC  73 h262
M  ZZC  74 h271
M  ZZC  75 h281
M  ZZM   1 13
M  ZZI   1 95
M  ZZM   2 37
M  ZZI   2 124
M  ZZM   3 37
M  ZZI   3 125
M  ZZM   4 37
M  ZZI   4 125
M  ZZM   5 37
M  ZZI   5 124
M  ZZM   6 1
M  ZZI   6 113
M  ZZM   7 10
M  ZZI   7 211
M  ZZM   8 3
M  ZZI   8 121
M  ZZM   9 7
M  ZZI   9 81
M  ZZM  10 1
M  ZZI  10 113
M  ZZM  11 10
M  ZZI  11 192
M  ZZM  12 3
M  ZZI  12 121
M  ZZM  13 7
M  ZZI  13 81
M  ZZM  14 1
M  ZZI  14 113
M  ZZM  15 1
M  ZZI  15 113
M  ZZM  16 1
M  ZZI  16 111
M  ZZM  17 1
M  ZZI  17 111
M  ZZM  18 63
M  ZZI  18 104
M  ZZM  19 59
M  ZZI  19 56
M  ZZM  20 65
M  ZZI  20 207
M  ZZM  21 64
M  ZZI  21 105
M  ZZM  22 1
M  ZZI  22 111
M  ZZM  23 64
M  ZZI  23 105
M  ZZM  24 1
M  ZZI  24 112
M  ZZM  25 1
M  ZZI  25 113
M  ZZM  26 6
M  ZZI  26 60
M  ZZM  27 1
M  ZZI  27 112
M  ZZM  28 1
M  ZZI  28 112
M  ZZM  29 3
M  ZZI  29 121
M  ZZM  30 7
M  ZZI  30 81
M  ZZM  31 10
M  ZZI  31 192
M  ZZM  32 1
M  ZZI  32 112
M  ZZM  33 1
M  ZZI  33 112
M  ZZM  34 1
M  ZZI  34 112
M  ZZM  35 1
M  ZZI  35 112
M  ZZM  36 1
M  ZZI  36 112
M  ZZM  37 37
M  ZZI  37 125
M  ZZM  38 37
M  ZZI  38 125
M  ZZM  39 5
M  ZZI  39 1
M  ZZM  40 5
M  ZZI  40 1
M  ZZM  41 5
M  ZZI  41 1
M  ZZM  42 28
M  ZZI  42 11
M  ZZM  43 5
M  ZZI  43 1
M  ZZM  44 5
M  ZZI  44 1
M  ZZM  45 5
M  ZZI  45 1
M  ZZM  46 5
M  ZZI  46 1
M  ZZM  47 5
M  ZZI  47 1
M  ZZM  48 5
M  ZZI  48 1
M  ZZM  49 5
M  ZZI  49 1
M  ZZM  50 5
M  ZZI  50 1
M  ZZM  51 5
M  ZZI  51 1
M  ZZM  52 5
M  ZZI  52 1
M  ZZM  53 5
M  ZZI  53 1
M  ZZM  54 5
M  ZZI  54 1
M  ZZM  55 5
M  ZZI  55 1
M  ZZM  56 5
M  ZZI  56 1
M  ZZM  57 5
M  ZZI  57 1
M  ZZM  58 5
M  ZZI  58 1
M  ZZM  59 21
M  ZZI  59 20
M  ZZM  60 5
M  ZZI  60 1
M  ZZM  61 5
M  ZZI  61 1
M  ZZM  62 5
M  ZZI  62 1
M  ZZM  63 5
M  ZZI  63 1
M  ZZM  64 5
M  ZZI  64 1
M  ZZM  65 5
M  ZZI  65 1
M  ZZM  66 5
M  ZZI  66 1
M  ZZM  67 5
M  ZZI  67 1
M  ZZM  68 5
M  ZZI  68 1
M  ZZM  69 5
M  ZZI  69 1
M  ZZM  70 5
M  ZZI  70 1
M  ZZM  71 5
M  ZZI  71 1
M  ZZM  72 5
M  ZZI  72 1
M  ZZM  73 5
M  ZZI  73 1
M  ZZM  74 5
M  ZZI  74 1
M  ZZM  75 5
M  ZZI  75 1
M  END
> <IX>
1

> <NAME>
VHL_5T8E_4.pdb

> <Score>
-1.804333

> <Natom>
75

> <Nflex>
11

> <Hbond>
-3.44846

> <Hphob>
-7.330285

> <VwInt>
-22.461497

> <Dsolv>
18.694864

> <SolEl>
16.646461

> <Eintl>
4.475413

> <RecConf>
ND

> <projPath>
VHL_maps/

> <NAME_>
VHL_5T8E_4.pdb

$$$$
