VHL_5T8E_14.pdb
  MOLSOFT 04032206453D

 75 78  0  0  1  0  0  0  0  0999 V2000
   18.4519   -7.2331   -5.8983 C   0  0  0  0  0  0  0  0  0  0  0  0
   19.1407   -5.8792   -5.8904 C   0  0  0  0  0  0  0  0  0  0  0  0
   18.1788   -4.7126   -5.6931 C   0  0  0  0  0  0  0  0  0  0  0  0
   17.2097   -4.9297   -4.6294 N   0  0  0  0  0  0  0  0  0  0  0  0
   16.8904   -3.8624   -3.7871 C   0  0  0  0  0  0  0  0  0  0  0  0
   17.4971   -2.8006   -3.8219 O   0  0  0  0  0  0  0  0  0  0  0  0
   15.7055   -4.0561   -2.8497 C   0  0  0  0  0  0  0  0  0  0  0  0
   15.4642   -2.9186   -1.8397 C   0  0  2  0  0  0  0  0  0  0  0  0
   15.6835   -1.5930   -2.3948 N   0  0  0  0  0  0  0  0  0  0  0  0
   14.9083   -0.4936   -2.0829 C   0  0  0  0  0  0  0  0  0  0  0  0
   13.8788   -0.5530   -1.4257 O   0  0  0  0  0  0  0  0  0  0  0  0
   15.5180    0.8515   -2.4949 C   0  0  2  0  0  0  0  0  0  0  0  0
   16.5324    0.7669   -3.5526 N   0  0  0  0  0  0  0  0  0  0  0  0
   16.3620    0.7537   -4.9399 C   0  0  0  0  0  0  0  0  0  0  0  0
   17.3279    0.7769   -5.6902 O   0  0  0  0  0  0  0  0  0  0  0  0
   14.9299    0.7033   -5.4843 C   0  0  2  0  0  0  0  0  0  0  0  0
   14.4451   -0.7434   -5.7436 C   0  0  0  0  0  0  0  0  0  0  0  0
   15.2502   -1.4963   -6.8091 C   0  0  0  0  0  0  0  0  0  0  0  0
   12.9512   -0.7598   -6.0826 C   0  0  0  0  0  0  0  0  0  0  0  0
   14.7938    1.6134   -6.6651 C   0  0  0  0  0  0  0  0  0  0  0  0
   15.4864    1.3165   -7.8021 O   0  0  0  0  0  0  0  0  0  0  0  0
   15.1653    2.2462   -8.7956 N   0  0  0  0  0  0  0  0  0  0  0  0
   14.2898    3.0848   -8.2288 C   0  0  0  0  0  0  0  0  0  0  0  0
   13.6984    4.1897   -9.0083 C   0  0  0  0  0  0  0  0  0  0  0  0
   14.0523    2.7472   -6.8808 C   0  0  0  0  0  0  0  0  0  0  0  0
   17.8721    0.9055   -3.0048 C   0  0  0  0  0  0  0  0  0  0  0  0
   17.6992    0.9203   -1.4961 C   0  0  1  0  0  0  0  0  0  0  0  0
   18.6475    1.7840   -0.8729 O   0  0  0  0  0  0  0  0  0  0  0  0
   16.2821    1.4388   -1.3134 C   0  0  0  0  0  0  0  0  0  0  0  0
   16.2491   -3.0875   -0.5517 C   0  0  0  0  0  0  0  0  0  0  0  0
   17.6437   -3.0996   -0.5212 C   0  0  0  0  0  0  0  0  0  0  0  0
   18.3319   -3.2635    0.6680 C   0  0  0  0  0  0  0  0  0  0  0  0
   17.6433   -3.4051    1.8567 C   0  0  0  0  0  0  0  0  0  0  0  0
   16.2624   -3.3666    1.8525 C   0  0  0  0  0  0  0  0  0  0  0  0
   15.5752   -3.2077    0.6622 C   0  0  0  0  0  0  0  0  0  0  0  0
   16.5086   -6.2043   -4.6910 C   0  0  0  0  0  0  0  0  0  0  0  0
   17.4778   -7.3722   -4.7441 C   0  0  0  0  0  0  0  0  0  0  0  0
   17.9165   -7.3786   -6.8392 H   0  0  0  0  0  0  0  0  0  0  0  0
   19.2094   -8.0179   -5.8378 H   0  0  0  0  0  0  0  0  0  0  0  0
   19.8683   -5.8819   -5.0804 H   0  0  0  0  0  0  0  0  0  0  0  0
   19.7110   -5.7418   -6.8143 H   0  0  0  0  0  0  0  0  0  0  0  0
   18.7393   -3.7887   -5.5309 H   0  0  0  0  0  0  0  0  0  0  0  0
   17.5835   -4.5586   -6.5892 H   0  0  0  0  0  0  0  0  0  0  0  0
   14.8238   -4.1373   -3.4953 H   0  0  0  0  0  0  0  0  0  0  0  0
   15.8086   -5.0011   -2.3068 H   0  0  0  0  0  0  0  0  0  0  0  0
   14.4025   -2.9729   -1.5750 H   0  0  0  0  0  0  0  0  0  0  0  0
   16.5278   -1.4483   -2.9438 H   0  0  0  0  0  0  0  0  0  0  0  0
   14.7011    1.5141   -2.7954 H   0  0  0  0  0  0  0  0  0  0  0  0
   14.2712    1.1232   -4.7222 H   0  0  0  0  0  0  0  0  0  0  0  0
   14.5641   -1.3078   -4.8158 H   0  0  0  0  0  0  0  0  0  0  0  0
   15.0668   -1.1165   -7.8176 H   0  0  0  0  0  0  0  0  0  0  0  0
   14.9827   -2.5533   -6.8179 H   0  0  0  0  0  0  0  0  0  0  0  0
   16.3247   -1.4536   -6.6163 H   0  0  0  0  0  0  0  0  0  0  0  0
   12.5594   -1.7789   -6.0710 H   0  0  0  0  0  0  0  0  0  0  0  0
   12.7489   -0.3422   -7.0736 H   0  0  0  0  0  0  0  0  0  0  0  0
   12.3710   -0.1875   -5.3522 H   0  0  0  0  0  0  0  0  0  0  0  0
   13.0160    3.7934   -9.7653 H   0  0  0  0  0  0  0  0  0  0  0  0
   14.4759    4.7725   -9.5109 H   0  0  0  0  0  0  0  0  0  0  0  0
   13.1343    4.8715   -8.3656 H   0  0  0  0  0  0  0  0  0  0  0  0
   13.4078    3.2430   -6.1722 H   0  0  0  0  0  0  0  0  0  0  0  0
   18.5007    0.0736   -3.3394 H   0  0  0  0  0  0  0  0  0  0  0  0
   18.3226    1.8307   -3.3829 H   0  0  0  0  0  0  0  0  0  0  0  0
   17.8132   -0.0874   -1.0832 H   0  0  0  0  0  0  0  0  0  0  0  0
   18.4616    1.7795    0.0824 H   0  0  0  0  0  0  0  0  0  0  0  0
   16.2764    2.5343   -1.3611 H   0  0  0  0  0  0  0  0  0  0  0  0
   15.8705    1.1622   -0.3367 H   0  0  0  0  0  0  0  0  0  0  0  0
   18.2182   -2.9649   -1.4300 H   0  0  0  0  0  0  0  0  0  0  0  0
   19.4177   -3.2744    0.6662 H   0  0  0  0  0  0  0  0  0  0  0  0
   18.1836   -3.5353    2.7889 H   0  0  0  0  0  0  0  0  0  0  0  0
   15.7150   -3.4647    2.7847 H   0  0  0  0  0  0  0  0  0  0  0  0
   14.4919   -3.1711    0.6924 H   0  0  0  0  0  0  0  0  0  0  0  0
   15.8377   -6.3143   -3.8427 H   0  0  0  0  0  0  0  0  0  0  0  0
   15.8945   -6.1993   -5.5944 H   0  0  0  0  0  0  0  0  0  0  0  0
   16.9343   -8.3158   -4.8443 H   0  0  0  0  0  0  0  0  0  0  0  0
   18.0299   -7.4174   -3.8049 H   0  0  0  0  0  0  0  0  0  0  0  0
  1 38  1  0  0  0  0
  1 39  1  0  0  0  0
  1  2  1  0  0  0  0
  1 37  1  0  0  0  0
  2 40  1  0  0  0  0
  2 41  1  0  0  0  0
  2  3  1  0  0  0  0
  3 42  1  0  0  0  0
  3 43  1  0  0  0  0
  3  4  1  0  0  0  0
  4 36  1  0  0  0  0
  4  5  1  0  0  0  0
  5  6  2  0  0  0  0
  5  7  1  0  0  0  0
  7 44  1  0  0  0  0
  7 45  1  0  0  0  0
  8  7  1  0  0  0  0
  8 46  1  0  0  0  0
  8 30  1  0  0  0  0
  8  9  1  0  0  0  0
  9 47  1  0  0  0  0
  9 10  1  0  0  0  0
 10 11  2  0  0  0  0
 12 10  1  0  0  0  0
 12 48  1  0  0  0  0
 12 29  1  0  0  0  0
 12 13  1  0  0  0  0
 13 26  1  0  0  0  0
 13 14  1  0  0  0  0
 14 15  2  0  0  0  0
 16 14  1  0  0  0  0
 16 49  1  0  0  0  0
 16 17  1  0  0  0  0
 16 20  1  0  0  0  0
 17 50  1  0  0  0  0
 17 19  1  0  0  0  0
 17 18  1  0  0  0  0
 18 51  1  0  0  0  0
 18 52  1  0  0  0  0
 18 53  1  0  0  0  0
 19 54  1  0  0  0  0
 19 55  1  0  0  0  0
 19 56  1  0  0  0  0
 20 25  2  0  0  0  0
 20 21  1  0  0  0  0
 21 22  1  0  0  0  0
 22 23  2  0  0  0  0
 23 25  1  0  0  0  0
 23 24  1  0  0  0  0
 24 57  1  0  0  0  0
 24 58  1  0  0  0  0
 24 59  1  0  0  0  0
 25 60  1  0  0  0  0
 27 26  1  0  0  0  0
 26 61  1  0  0  0  0
 26 62  1  0  0  0  0
 27 29  1  0  0  0  0
 27 63  1  0  0  0  0
 27 28  1  0  0  0  0
 28 64  1  0  0  0  0
 29 65  1  0  0  0  0
 29 66  1  0  0  0  0
 30 31  1  0  0  0  0
 30 35  2  0  0  0  0
 31 67  1  0  0  0  0
 31 32  2  0  0  0  0
 32 68  1  0  0  0  0
 32 33  1  0  0  0  0
 33 69  1  0  0  0  0
 33 34  2  0  0  0  0
 34 70  1  0  0  0  0
 34 35  1  0  0  0  0
 35 71  1  0  0  0  0
 36 72  1  0  0  0  0
 36 73  1  0  0  0  0
 36 37  1  0  0  0  0
 37 74  1  0  0  0  0
 37 75  1  0  0  0  0
M  ZZC   1 c1
M  ZZC   2 c2
M  ZZC   3 c3
M  ZZC   4 n1
M  ZZC   5 c4
M  ZZC   6 o1
M  ZZC   7 c5
M  ZZC   8 c6
M  ZZC   9 n2
M  ZZC  10 c7
M  ZZC  11 o2
M  ZZC  12 c8
M  ZZC  13 n3
M  ZZC  14 c9
M  ZZC  15 o3
M  ZZC  16 c10
M  ZZC  17 c11
M  ZZC  18 c12
M  ZZC  19 c13
M  ZZC  20 c14
M  ZZC  21 o4
M  ZZC  22 n4
M  ZZC  23 c15
M  ZZC  24 c16
M  ZZC  25 c17
M  ZZC  26 c18
M  ZZC  27 c19
M  ZZC  28 o5
M  ZZC  29 c20
M  ZZC  30 c21
M  ZZC  31 c22
M  ZZC  32 c23
M  ZZC  33 c24
M  ZZC  34 c25
M  ZZC  35 c26
M  ZZC  36 c27
M  ZZC  37 c28
M  ZZC  38 h11
M  ZZC  39 h12
M  ZZC  40 h21
M  ZZC  41 h22
M  ZZC  42 h31
M  ZZC  43 h32
M  ZZC  44 h51
M  ZZC  45 h52
M  ZZC  46 h61
M  ZZC  47 h01
M  ZZC  48 h81
M  ZZC  49 h101
M  ZZC  50 h111
M  ZZC  51 h121
M  ZZC  52 h122
M  ZZC  53 h123
M  ZZC  54 h131
M  ZZC  55 h132
M  ZZC  56 h133
M  ZZC  57 h161
M  ZZC  58 h162
M  ZZC  59 h163
M  ZZC  60 h171
M  ZZC  61 h181
M  ZZC  62 h182
M  ZZC  63 h191
M  ZZC  64 h02
M  ZZC  65 h201
M  ZZC  66 h202
M  ZZC  67 h221
M  ZZC  68 h231
M  ZZC  69 h241
M  ZZC  70 h251
M  ZZC  71 h261
M  ZZC  72 h271
M  ZZC  73 h272
M  ZZC  74 h281
M  ZZC  75 h282
M  ZZM   1 1
M  ZZI   1 112
M  ZZM   2 1
M  ZZI   2 112
M  ZZM   3 1
M  ZZI   3 112
M  ZZM   4 10
M  ZZI   4 192
M  ZZM   5 3
M  ZZI   5 121
M  ZZM   6 7
M  ZZI   6 81
M  ZZM   7 1
M  ZZI   7 112
M  ZZM   8 1
M  ZZI   8 113
M  ZZM   9 10
M  ZZI   9 211
M  ZZM  10 3
M  ZZI  10 121
M  ZZM  11 7
M  ZZI  11 81
M  ZZM  12 1
M  ZZI  12 113
M  ZZM  13 10
M  ZZI  13 192
M  ZZM  14 3
M  ZZI  14 121
M  ZZM  15 7
M  ZZI  15 81
M  ZZM  16 1
M  ZZI  16 113
M  ZZM  17 1
M  ZZI  17 113
M  ZZM  18 1
M  ZZI  18 111
M  ZZM  19 1
M  ZZI  19 111
M  ZZM  20 63
M  ZZI  20 104
M  ZZM  21 59
M  ZZI  21 56
M  ZZM  22 65
M  ZZI  22 207
M  ZZM  23 64
M  ZZI  23 105
M  ZZM  24 1
M  ZZI  24 111
M  ZZM  25 64
M  ZZI  25 105
M  ZZM  26 1
M  ZZI  26 112
M  ZZM  27 1
M  ZZI  27 113
M  ZZM  28 6
M  ZZI  28 60
M  ZZM  29 1
M  ZZI  29 112
M  ZZM  30 37
M  ZZI  30 124
M  ZZM  31 37
M  ZZI  31 125
M  ZZM  32 37
M  ZZI  32 125
M  ZZM  33 37
M  ZZI  33 125
M  ZZM  34 37
M  ZZI  34 125
M  ZZM  35 37
M  ZZI  35 125
M  ZZM  36 1
M  ZZI  36 112
M  ZZM  37 1
M  ZZI  37 112
M  ZZM  38 5
M  ZZI  38 1
M  ZZM  39 5
M  ZZI  39 1
M  ZZM  40 5
M  ZZI  40 1
M  ZZM  41 5
M  ZZI  41 1
M  ZZM  42 5
M  ZZI  42 1
M  ZZM  43 5
M  ZZI  43 1
M  ZZM  44 5
M  ZZI  44 1
M  ZZM  45 5
M  ZZI  45 1
M  ZZM  46 5
M  ZZI  46 1
M  ZZM  47 28
M  ZZI  47 11
M  ZZM  48 5
M  ZZI  48 1
M  ZZM  49 5
M  ZZI  49 1
M  ZZM  50 5
M  ZZI  50 1
M  ZZM  51 5
M  ZZI  51 1
M  ZZM  52 5
M  ZZI  52 1
M  ZZM  53 5
M  ZZI  53 1
M  ZZM  54 5
M  ZZI  54 1
M  ZZM  55 5
M  ZZI  55 1
M  ZZM  56 5
M  ZZI  56 1
M  ZZM  57 5
M  ZZI  57 1
M  ZZM  58 5
M  ZZI  58 1
M  ZZM  59 5
M  ZZI  59 1
M  ZZM  60 5
M  ZZI  60 1
M  ZZM  61 5
M  ZZI  61 1
M  ZZM  62 5
M  ZZI  62 1
M  ZZM  63 5
M  ZZI  63 1
M  ZZM  64 21
M  ZZI  64 20
M  ZZM  65 5
M  ZZI  65 1
M  ZZM  66 5
M  ZZI  66 1
M  ZZM  67 5
M  ZZI  67 1
M  ZZM  68 5
M  ZZI  68 1
M  ZZM  69 5
M  ZZI  69 1
M  ZZM  70 5
M  ZZI  70 1
M  ZZM  71 5
M  ZZI  71 1
M  ZZM  72 5
M  ZZI  72 1
M  ZZM  73 5
M  ZZI  73 1
M  ZZM  74 5
M  ZZI  74 1
M  ZZM  75 5
M  ZZI  75 1
M  END
> <IX>
1

> <NAME>
VHL_5T8E_14.pdb

> <Score>
-1.089876

> <Natom>
75

> <Nflex>
11

> <Hbond>
-1.573883

> <Hphob>
-7.205365

> <VwInt>
-25.09314

> <Dsolv>
12.866228

> <SolEl>
17.926136

> <Eintl>
7.886437

> <RecConf>
ND

> <projPath>
VHL_maps/

> <NAME_>
VHL_5T8E_14.pdb

$$$$
