VHL_5G0J_8.pdb
  MOLSOFT 04032206413D

 65 67  0  0  1  0  0  0  0  0999 V2000
   12.3439    0.0498   -5.4625 C   0  0  0  0  0  0  0  0  0  0  0  0
   13.5299    0.2095   -4.5464 C   0  0  0  0  0  0  0  0  0  0  0  0
   14.3520    1.1007   -4.6923 O   0  0  0  0  0  0  0  0  0  0  0  0
   13.5964   -0.7595   -3.5654 N   0  0  0  0  0  0  0  0  0  0  0  0
   14.7333   -0.9010   -2.6544 C   0  0  1  0  0  0  0  0  0  0  0  0
   14.5281   -0.1608   -1.2903 C   0  0  0  0  0  0  0  0  0  0  0  0
   13.3407   -0.6877   -0.4645 C   0  0  0  0  0  0  0  0  0  0  0  0
   15.8042   -0.3021   -0.4455 C   0  0  0  0  0  0  0  0  0  0  0  0
   14.2889    1.3417   -1.5239 C   0  0  0  0  0  0  0  0  0  0  0  0
   14.9422   -2.4252   -2.5342 C   0  0  0  0  0  0  0  0  0  0  0  0
   14.4004   -3.0776   -1.6538 O   0  0  0  0  0  0  0  0  0  0  0  0
   15.6818   -3.0696   -3.5265 N   0  0  0  0  0  0  0  0  0  0  0  0
   16.5201   -2.4810   -4.5729 C   0  0  2  0  0  0  0  0  0  0  0  0
   15.7576   -1.9899   -5.8165 C   0  0  0  0  0  0  0  0  0  0  0  0
   14.6539   -2.4143   -6.1309 O   0  0  0  0  0  0  0  0  0  0  0  0
   16.4611   -1.0615   -6.5661 N   0  0  0  0  0  0  0  0  0  0  0  0
   15.9776   -0.5320   -7.8265 C   0  0  0  0  0  0  0  0  0  0  0  0
   15.5834    0.9230   -7.7620 C   0  0  0  0  0  0  0  0  0  0  0  0
   14.2979    1.3158   -8.1119 C   0  0  0  0  0  0  0  0  0  0  0  0
   13.9195    2.6464   -8.1072 C   0  0  0  0  0  0  0  0  0  0  0  0
   14.8183    3.6373   -7.7335 C   0  0  0  0  0  0  0  0  0  0  0  0
   14.4147    5.0394   -7.7040 C   0  0  0  0  0  0  0  0  0  0  0  0
   14.4489    5.9692   -6.6718 C   0  0  0  0  0  0  0  0  0  0  0  0
   14.8976    5.7367   -5.2789 C   0  0  0  0  0  0  0  0  0  0  0  0
   13.9945    7.2321   -7.0021 N   0  0  0  0  0  0  0  0  0  0  0  0
   13.6069    7.2467   -8.2567 C   0  0  0  0  0  0  0  0  0  0  0  0
   13.7623    5.7808   -9.1141 S   0  0  0  0  0  0  0  0  0  0  0  0
   16.1071    3.2502   -7.3734 C   0  0  0  0  0  0  0  0  0  0  0  0
   16.4870    1.9152   -7.3932 C   0  0  0  0  0  0  0  0  0  0  0  0
   17.4779   -3.6114   -4.9345 C   0  0  0  0  0  0  0  0  0  0  0  0
   16.6825   -4.8805   -4.6796 C   0  0  1  0  0  0  0  0  0  0  0  0
   17.5255   -6.0030   -4.4250 O   0  0  0  0  0  0  0  0  0  0  0  0
   15.8401   -4.5118   -3.4709 C   0  0  0  0  0  0  0  0  0  0  0  0
   11.4294   -0.0878   -4.8842 H   0  0  0  0  0  0  0  0  0  0  0  0
   12.4872   -0.8144   -6.1170 H   0  0  0  0  0  0  0  0  0  0  0  0
   12.2219    0.9447   -6.0759 H   0  0  0  0  0  0  0  0  0  0  0  0
   12.8669   -1.4590   -3.5192 H   0  0  0  0  0  0  0  0  0  0  0  0
   15.6054   -0.4615   -3.1465 H   0  0  0  0  0  0  0  0  0  0  0  0
   13.0896   -0.0041    0.3530 H   0  0  0  0  0  0  0  0  0  0  0  0
   13.5574   -1.6484    0.0057 H   0  0  0  0  0  0  0  0  0  0  0  0
   12.4418   -0.8100   -1.0710 H   0  0  0  0  0  0  0  0  0  0  0  0
   16.0186   -1.3465   -0.1983 H   0  0  0  0  0  0  0  0  0  0  0  0
   15.7188    0.2403    0.5019 H   0  0  0  0  0  0  0  0  0  0  0  0
   16.6777    0.0959   -0.9722 H   0  0  0  0  0  0  0  0  0  0  0  0
   14.2553    1.8940   -0.5788 H   0  0  0  0  0  0  0  0  0  0  0  0
   13.3371    1.5320   -2.0295 H   0  0  0  0  0  0  0  0  0  0  0  0
   15.0868    1.7869   -2.1266 H   0  0  0  0  0  0  0  0  0  0  0  0
   17.0772   -1.6356   -4.1551 H   0  0  0  0  0  0  0  0  0  0  0  0
   17.3899   -0.7759   -6.2798 H   0  0  0  0  0  0  0  0  0  0  0  0
   16.7843   -0.6457   -8.5566 H   0  0  0  0  0  0  0  0  0  0  0  0
   15.1428   -1.1454   -8.1792 H   0  0  0  0  0  0  0  0  0  0  0  0
   13.5596    0.5693   -8.3745 H   0  0  0  0  0  0  0  0  0  0  0  0
   12.8977    2.8998   -8.3760 H   0  0  0  0  0  0  0  0  0  0  0  0
   14.5968    6.5633   -4.6282 H   0  0  0  0  0  0  0  0  0  0  0  0
   15.9869    5.6516   -5.2318 H   0  0  0  0  0  0  0  0  0  0  0  0
   14.4573    4.8216   -4.8709 H   0  0  0  0  0  0  0  0  0  0  0  0
   13.2090    8.1331   -8.7281 H   0  0  0  0  0  0  0  0  0  0  0  0
   16.8391    3.9956   -7.0777 H   0  0  0  0  0  0  0  0  0  0  0  0
   17.5038    1.6513   -7.1174 H   0  0  0  0  0  0  0  0  0  0  0  0
   17.8607   -3.5696   -5.9555 H   0  0  0  0  0  0  0  0  0  0  0  0
   18.3455   -3.5777   -4.2744 H   0  0  0  0  0  0  0  0  0  0  0  0
   16.0686   -5.1193   -5.5480 H   0  0  0  0  0  0  0  0  0  0  0  0
   16.9490   -6.7646   -4.2251 H   0  0  0  0  0  0  0  0  0  0  0  0
   16.3305   -4.7827   -2.5286 H   0  0  0  0  0  0  0  0  0  0  0  0
   14.8609   -5.0014   -3.4797 H   0  0  0  0  0  0  0  0  0  0  0  0
  1 34  1  0  0  0  0
  1 35  1  0  0  0  0
  1 36  1  0  0  0  0
  1  2  1  0  0  0  0
  2  3  2  0  0  0  0
  2  4  1  0  0  0  0
  4 37  1  0  0  0  0
  5  4  1  0  0  0  0
  5 38  1  0  0  0  0
  5  6  1  0  0  0  0
  5 10  1  0  0  0  0
  6  7  1  0  0  0  0
  6  8  1  0  0  0  0
  6  9  1  0  0  0  0
  7 39  1  0  0  0  0
  7 40  1  0  0  0  0
  7 41  1  0  0  0  0
  8 42  1  0  0  0  0
  8 43  1  0  0  0  0
  8 44  1  0  0  0  0
  9 45  1  0  0  0  0
  9 46  1  0  0  0  0
  9 47  1  0  0  0  0
 10 11  2  0  0  0  0
 10 12  1  0  0  0  0
 12 33  1  0  0  0  0
 13 12  1  0  0  0  0
 13 30  1  0  0  0  0
 13 48  1  0  0  0  0
 13 14  1  0  0  0  0
 14 15  2  0  0  0  0
 14 16  1  0  0  0  0
 16 49  1  0  0  0  0
 16 17  1  0  0  0  0
 17 50  1  0  0  0  0
 17 51  1  0  0  0  0
 17 18  1  0  0  0  0
 18 19  1  0  0  0  0
 18 29  2  0  0  0  0
 19 52  1  0  0  0  0
 19 20  2  0  0  0  0
 20 53  1  0  0  0  0
 20 21  1  0  0  0  0
 21 28  2  0  0  0  0
 21 22  1  0  0  0  0
 22 23  2  0  0  0  0
 22 27  1  0  0  0  0
 23 24  1  0  0  0  0
 23 25  1  0  0  0  0
 24 54  1  0  0  0  0
 24 55  1  0  0  0  0
 24 56  1  0  0  0  0
 25 26  2  0  0  0  0
 26 57  1  0  0  0  0
 26 27  1  0  0  0  0
 28 58  1  0  0  0  0
 28 29  1  0  0  0  0
 29 59  1  0  0  0  0
 31 30  1  0  0  0  0
 30 60  1  0  0  0  0
 30 61  1  0  0  0  0
 31 33  1  0  0  0  0
 31 62  1  0  0  0  0
 31 32  1  0  0  0  0
 32 63  1  0  0  0  0
 33 64  1  0  0  0  0
 33 65  1  0  0  0  0
M  ZZC   1 c1
M  ZZC   2 c2
M  ZZC   3 o1
M  ZZC   4 n1
M  ZZC   5 c3
M  ZZC   6 c4
M  ZZC   7 c5
M  ZZC   8 c6
M  ZZC   9 c7
M  ZZC  10 c8
M  ZZC  11 o2
M  ZZC  12 n2
M  ZZC  13 c9
M  ZZC  14 c10
M  ZZC  15 o3
M  ZZC  16 n3
M  ZZC  17 c11
M  ZZC  18 c12
M  ZZC  19 c13
M  ZZC  20 c14
M  ZZC  21 c15
M  ZZC  22 c16
M  ZZC  23 c17
M  ZZC  24 c18
M  ZZC  25 n4
M  ZZC  26 c19
M  ZZC  27 s1
M  ZZC  28 c20
M  ZZC  29 c21
M  ZZC  30 c22
M  ZZC  31 c23
M  ZZC  32 o4
M  ZZC  33 c24
M  ZZC  34 h11
M  ZZC  35 h12
M  ZZC  36 h13
M  ZZC  37 h01
M  ZZC  38 h31
M  ZZC  39 h51
M  ZZC  40 h52
M  ZZC  41 h53
M  ZZC  42 h61
M  ZZC  43 h62
M  ZZC  44 h63
M  ZZC  45 h71
M  ZZC  46 h72
M  ZZC  47 h73
M  ZZC  48 h91
M  ZZC  49 h02
M  ZZC  50 h111
M  ZZC  51 h112
M  ZZC  52 h131
M  ZZC  53 h141
M  ZZC  54 h181
M  ZZC  55 h182
M  ZZC  56 h183
M  ZZC  57 h191
M  ZZC  58 h201
M  ZZC  59 h211
M  ZZC  60 h221
M  ZZC  61 h222
M  ZZC  62 h231
M  ZZC  63 h41
M  ZZC  64 h241
M  ZZC  65 h242
M  ZZM   1 1
M  ZZI   1 111
M  ZZM   2 3
M  ZZI   2 121
M  ZZM   3 7
M  ZZI   3 81
M  ZZM   4 10
M  ZZI   4 211
M  ZZM   5 1
M  ZZI   5 113
M  ZZM   6 1
M  ZZI   6 110
M  ZZM   7 1
M  ZZI   7 111
M  ZZM   8 1
M  ZZI   8 111
M  ZZM   9 1
M  ZZI   9 111
M  ZZM  10 3
M  ZZI  10 121
M  ZZM  11 7
M  ZZI  11 81
M  ZZM  12 10
M  ZZI  12 192
M  ZZM  13 1
M  ZZI  13 113
M  ZZM  14 3
M  ZZI  14 121
M  ZZM  15 7
M  ZZI  15 81
M  ZZM  16 10
M  ZZI  16 211
M  ZZM  17 1
M  ZZI  17 112
M  ZZM  18 37
M  ZZI  18 124
M  ZZM  19 37
M  ZZI  19 125
M  ZZM  20 37
M  ZZI  20 125
M  ZZM  21 37
M  ZZI  21 124
M  ZZM  22 63
M  ZZI  22 104
M  ZZM  23 64
M  ZZI  23 105
M  ZZM  24 1
M  ZZI  24 111
M  ZZM  25 66
M  ZZI  25 222
M  ZZM  26 63
M  ZZI  26 104
M  ZZM  27 44
M  ZZI  27 248
M  ZZM  28 37
M  ZZI  28 125
M  ZZM  29 37
M  ZZI  29 125
M  ZZM  30 1
M  ZZI  30 112
M  ZZM  31 1
M  ZZI  31 113
M  ZZM  32 6
M  ZZI  32 60
M  ZZM  33 1
M  ZZI  33 112
M  ZZM  34 5
M  ZZI  34 1
M  ZZM  35 5
M  ZZI  35 1
M  ZZM  36 5
M  ZZI  36 1
M  ZZM  37 28
M  ZZI  37 11
M  ZZM  38 5
M  ZZI  38 1
M  ZZM  39 5
M  ZZI  39 1
M  ZZM  40 5
M  ZZI  40 1
M  ZZM  41 5
M  ZZI  41 1
M  ZZM  42 5
M  ZZI  42 1
M  ZZM  43 5
M  ZZI  43 1
M  ZZM  44 5
M  ZZI  44 1
M  ZZM  45 5
M  ZZI  45 1
M  ZZM  46 5
M  ZZI  46 1
M  ZZM  47 5
M  ZZI  47 1
M  ZZM  48 5
M  ZZI  48 1
M  ZZM  49 28
M  ZZI  49 11
M  ZZM  50 5
M  ZZI  50 1
M  ZZM  51 5
M  ZZI  51 1
M  ZZM  52 5
M  ZZI  52 1
M  ZZM  53 5
M  ZZI  53 1
M  ZZM  54 5
M  ZZI  54 1
M  ZZM  55 5
M  ZZI  55 1
M  ZZM  56 5
M  ZZI  56 1
M  ZZM  57 5
M  ZZI  57 1
M  ZZM  58 5
M  ZZI  58 1
M  ZZM  59 5
M  ZZI  59 1
M  ZZM  60 5
M  ZZI  60 1
M  ZZM  61 5
M  ZZI  61 1
M  ZZM  62 5
M  ZZI  62 1
M  ZZM  63 21
M  ZZI  63 20
M  ZZM  64 5
M  ZZI  64 1
M  ZZM  65 5
M  ZZI  65 1
M  END
> <IX>
1

> <NAME>
VHL_5G0J_8.pdb

> <Score>
-2.819764

> <Natom>
65

> <Nflex>
8

> <Hbond>
-2.885413

> <Hphob>
-6.652027

> <VwInt>
-29.146777

> <Dsolv>
20.791556

> <SolEl>
22.347694

> <Eintl>
4.901368

> <RecConf>
ND

> <projPath>
VHL_maps/

> <NAME_>
VHL_5G0J_8.pdb

$$$$
