VHL_5T8E_29.pdb
  MOLSOFT 04032206423D

 64 67  0  0  1  0  0  0  0  0999 V2000
   13.7346    2.6461   -8.1656 C   0  0  0  0  0  0  0  0  0  0  0  0
   14.0673    3.9616   -7.6491 N   0  0  0  0  0  0  0  0  0  0  0  0
   15.1716    4.6794   -8.0664 C   0  0  0  0  0  0  0  0  0  0  0  0
   15.9884    4.2373   -8.8601 O   0  0  0  0  0  0  0  0  0  0  0  0
   15.2635    6.1256   -7.5611 C   0  0  2  0  0  0  0  0  0  0  0  0
   14.4198    6.3855   -6.3998 N   0  0  0  0  0  0  0  0  0  0  0  0
   14.8677    6.0769   -5.1153 C   0  0  0  0  0  0  0  0  0  0  0  0
   15.9922    5.6312   -4.9273 O   0  0  0  0  0  0  0  0  0  0  0  0
   13.9026    6.2963   -3.9441 C   0  0  2  0  0  0  0  0  0  0  0  0
   14.4805    7.3850   -2.9979 C   0  0  0  0  0  0  0  0  0  0  0  0
   13.5966    7.6524   -1.7762 C   0  0  0  0  0  0  0  0  0  0  0  0
   14.6762    8.7144   -3.7329 C   0  0  0  0  0  0  0  0  0  0  0  0
   13.6977    4.9611   -3.2814 C   0  0  0  0  0  0  0  0  0  0  0  0
   12.7499    4.9021   -2.3021 O   0  0  0  0  0  0  0  0  0  0  0  0
   12.6516    3.5944   -1.8167 N   0  0  0  0  0  0  0  0  0  0  0  0
   13.5472    2.8893   -2.5120 C   0  0  0  0  0  0  0  0  0  0  0  0
   13.7106    1.4445   -2.2647 C   0  0  0  0  0  0  0  0  0  0  0  0
   14.2209    3.6971   -3.4518 C   0  0  0  0  0  0  0  0  0  0  0  0
   13.2457    7.1610   -6.7641 C   0  0  0  0  0  0  0  0  0  0  0  0
   13.3123    7.3157   -8.2785 C   0  0  2  0  0  0  0  0  0  0  0  0
   12.5447    6.3121   -8.9422 O   0  0  0  0  0  0  0  0  0  0  0  0
   14.7791    7.1170   -8.6110 C   0  0  0  0  0  0  0  0  0  0  0  0
   14.0144    1.5163   -7.2008 C   0  0  0  0  0  0  0  0  0  0  0  0
   12.9871    0.7100   -6.7176 C   0  0  0  0  0  0  0  0  0  0  0  0
   13.2491   -0.3713   -5.8900 C   0  0  0  0  0  0  0  0  0  0  0  0
   14.5508   -0.6900   -5.5033 C   0  0  0  0  0  0  0  0  0  0  0  0
   14.8453   -1.8424   -4.6418 C   0  0  0  0  0  0  0  0  0  0  0  0
   15.8415   -2.8116   -4.7235 C   0  0  0  0  0  0  0  0  0  0  0  0
   16.8669   -2.9529   -5.7772 C   0  0  0  0  0  0  0  0  0  0  0  0
   15.8461   -3.7543   -3.7148 N   0  0  0  0  0  0  0  0  0  0  0  0
   14.8633   -3.5147   -2.8811 C   0  0  0  0  0  0  0  0  0  0  0  0
   13.8860   -2.1643   -3.2449 S   0  0  0  0  0  0  0  0  0  0  0  0
   15.5744    0.1274   -5.9808 C   0  0  0  0  0  0  0  0  0  0  0  0
   15.3134    1.2048   -6.8144 C   0  0  0  0  0  0  0  0  0  0  0  0
   12.6726    2.6785   -8.4235 H   0  0  0  0  0  0  0  0  0  0  0  0
   14.2727    2.4679   -9.1013 H   0  0  0  0  0  0  0  0  0  0  0  0
   13.3958    4.4238   -7.0466 H   0  0  0  0  0  0  0  0  0  0  0  0
   16.3135    6.3072   -7.3052 H   0  0  0  0  0  0  0  0  0  0  0  0
   12.9287    6.6307   -4.3122 H   0  0  0  0  0  0  0  0  0  0  0  0
   15.4622    7.0635   -2.6310 H   0  0  0  0  0  0  0  0  0  0  0  0
   13.9438    8.5280   -1.2198 H   0  0  0  0  0  0  0  0  0  0  0  0
   13.6174    6.8156   -1.0743 H   0  0  0  0  0  0  0  0  0  0  0  0
   12.5566    7.8347   -2.0654 H   0  0  0  0  0  0  0  0  0  0  0  0
   15.3604    8.5977   -4.5789 H   0  0  0  0  0  0  0  0  0  0  0  0
   15.1005    9.4766   -3.0717 H   0  0  0  0  0  0  0  0  0  0  0  0
   13.7369    9.1007   -4.1377 H   0  0  0  0  0  0  0  0  0  0  0  0
   12.9794    0.8818   -2.8501 H   0  0  0  0  0  0  0  0  0  0  0  0
   13.5615    1.2038   -1.2074 H   0  0  0  0  0  0  0  0  0  0  0  0
   14.7124    1.1093   -2.5481 H   0  0  0  0  0  0  0  0  0  0  0  0
   14.9780    3.3857   -4.1573 H   0  0  0  0  0  0  0  0  0  0  0  0
   12.3402    6.6601   -6.4181 H   0  0  0  0  0  0  0  0  0  0  0  0
   13.3236    8.1341   -6.2703 H   0  0  0  0  0  0  0  0  0  0  0  0
   12.9332    8.2902   -8.5999 H   0  0  0  0  0  0  0  0  0  0  0  0
   12.5637    6.5434   -9.8895 H   0  0  0  0  0  0  0  0  0  0  0  0
   15.3100    8.0677   -8.4877 H   0  0  0  0  0  0  0  0  0  0  0  0
   14.9364    6.7572   -9.6326 H   0  0  0  0  0  0  0  0  0  0  0  0
   11.9568    0.9048   -7.0011 H   0  0  0  0  0  0  0  0  0  0  0  0
   12.4103   -0.9800   -5.5688 H   0  0  0  0  0  0  0  0  0  0  0  0
   17.2277   -3.9843   -5.8363 H   0  0  0  0  0  0  0  0  0  0  0  0
   17.7237   -2.3083   -5.5638 H   0  0  0  0  0  0  0  0  0  0  0  0
   16.4536   -2.6850   -6.7544 H   0  0  0  0  0  0  0  0  0  0  0  0
   14.6819   -4.1339   -2.0142 H   0  0  0  0  0  0  0  0  0  0  0  0
   16.6068   -0.0669   -5.7062 H   0  0  0  0  0  0  0  0  0  0  0  0
   16.1458    1.8026   -7.1750 H   0  0  0  0  0  0  0  0  0  0  0  0
  1 35  1  0  0  0  0
  1 36  1  0  0  0  0
  1 23  1  0  0  0  0
  1  2  1  0  0  0  0
  2 37  1  0  0  0  0
  2  3  1  0  0  0  0
  3  4  2  0  0  0  0
  5  3  1  0  0  0  0
  5 38  1  0  0  0  0
  5 22  1  0  0  0  0
  5  6  1  0  0  0  0
  6 19  1  0  0  0  0
  6  7  1  0  0  0  0
  7  8  2  0  0  0  0
  9  7  1  0  0  0  0
  9 39  1  0  0  0  0
  9 10  1  0  0  0  0
  9 13  1  0  0  0  0
 10 40  1  0  0  0  0
 10 12  1  0  0  0  0
 10 11  1  0  0  0  0
 11 41  1  0  0  0  0
 11 42  1  0  0  0  0
 11 43  1  0  0  0  0
 12 44  1  0  0  0  0
 12 45  1  0  0  0  0
 12 46  1  0  0  0  0
 13 18  2  0  0  0  0
 13 14  1  0  0  0  0
 14 15  1  0  0  0  0
 15 16  2  0  0  0  0
 16 18  1  0  0  0  0
 16 17  1  0  0  0  0
 17 47  1  0  0  0  0
 17 48  1  0  0  0  0
 17 49  1  0  0  0  0
 18 50  1  0  0  0  0
 20 19  1  0  0  0  0
 19 51  1  0  0  0  0
 19 52  1  0  0  0  0
 20 22  1  0  0  0  0
 20 53  1  0  0  0  0
 20 21  1  0  0  0  0
 21 54  1  0  0  0  0
 22 55  1  0  0  0  0
 22 56  1  0  0  0  0
 23 24  1  0  0  0  0
 23 34  2  0  0  0  0
 24 57  1  0  0  0  0
 24 25  2  0  0  0  0
 25 58  1  0  0  0  0
 25 26  1  0  0  0  0
 26 33  2  0  0  0  0
 26 27  1  0  0  0  0
 27 28  2  0  0  0  0
 27 32  1  0  0  0  0
 28 29  1  0  0  0  0
 28 30  1  0  0  0  0
 29 59  1  0  0  0  0
 29 60  1  0  0  0  0
 29 61  1  0  0  0  0
 30 31  2  0  0  0  0
 31 62  1  0  0  0  0
 31 32  1  0  0  0  0
 33 63  1  0  0  0  0
 33 34  1  0  0  0  0
 34 64  1  0  0  0  0
M  ZZC   1 c1
M  ZZC   2 n1
M  ZZC   3 c2
M  ZZC   4 o1
M  ZZC   5 c3
M  ZZC   6 n2
M  ZZC   7 c4
M  ZZC   8 o2
M  ZZC   9 c5
M  ZZC  10 c6
M  ZZC  11 c7
M  ZZC  12 c8
M  ZZC  13 c9
M  ZZC  14 o3
M  ZZC  15 n3
M  ZZC  16 c10
M  ZZC  17 c11
M  ZZC  18 c12
M  ZZC  19 c13
M  ZZC  20 c14
M  ZZC  21 o4
M  ZZC  22 c15
M  ZZC  23 c16
M  ZZC  24 c17
M  ZZC  25 c18
M  ZZC  26 c19
M  ZZC  27 c20
M  ZZC  28 c21
M  ZZC  29 c22
M  ZZC  30 n4
M  ZZC  31 c23
M  ZZC  32 s1
M  ZZC  33 c24
M  ZZC  34 c25
M  ZZC  35 h11
M  ZZC  36 h12
M  ZZC  37 h01
M  ZZC  38 h31
M  ZZC  39 h51
M  ZZC  40 h61
M  ZZC  41 h71
M  ZZC  42 h72
M  ZZC  43 h73
M  ZZC  44 h81
M  ZZC  45 h82
M  ZZC  46 h83
M  ZZC  47 h111
M  ZZC  48 h112
M  ZZC  49 h113
M  ZZC  50 h121
M  ZZC  51 h131
M  ZZC  52 h132
M  ZZC  53 h141
M  ZZC  54 h41
M  ZZC  55 h151
M  ZZC  56 h152
M  ZZC  57 h171
M  ZZC  58 h181
M  ZZC  59 h221
M  ZZC  60 h222
M  ZZC  61 h223
M  ZZC  62 h231
M  ZZC  63 h241
M  ZZC  64 h251
M  ZZM   1 1
M  ZZI   1 112
M  ZZM   2 10
M  ZZI   2 211
M  ZZM   3 3
M  ZZI   3 121
M  ZZM   4 7
M  ZZI   4 81
M  ZZM   5 1
M  ZZI   5 113
M  ZZM   6 10
M  ZZI   6 192
M  ZZM   7 3
M  ZZI   7 121
M  ZZM   8 7
M  ZZI   8 81
M  ZZM   9 1
M  ZZI   9 113
M  ZZM  10 1
M  ZZI  10 113
M  ZZM  11 1
M  ZZI  11 111
M  ZZM  12 1
M  ZZI  12 111
M  ZZM  13 63
M  ZZI  13 104
M  ZZM  14 59
M  ZZI  14 56
M  ZZM  15 65
M  ZZI  15 207
M  ZZM  16 64
M  ZZI  16 105
M  ZZM  17 1
M  ZZI  17 111
M  ZZM  18 64
M  ZZI  18 105
M  ZZM  19 1
M  ZZI  19 112
M  ZZM  20 1
M  ZZI  20 113
M  ZZM  21 6
M  ZZI  21 60
M  ZZM  22 1
M  ZZI  22 112
M  ZZM  23 37
M  ZZI  23 124
M  ZZM  24 37
M  ZZI  24 125
M  ZZM  25 37
M  ZZI  25 125
M  ZZM  26 37
M  ZZI  26 124
M  ZZM  27 63
M  ZZI  27 104
M  ZZM  28 64
M  ZZI  28 105
M  ZZM  29 1
M  ZZI  29 111
M  ZZM  30 66
M  ZZI  30 222
M  ZZM  31 63
M  ZZI  31 104
M  ZZM  32 44
M  ZZI  32 248
M  ZZM  33 37
M  ZZI  33 125
M  ZZM  34 37
M  ZZI  34 125
M  ZZM  35 5
M  ZZI  35 1
M  ZZM  36 5
M  ZZI  36 1
M  ZZM  37 28
M  ZZI  37 11
M  ZZM  38 5
M  ZZI  38 1
M  ZZM  39 5
M  ZZI  39 1
M  ZZM  40 5
M  ZZI  40 1
M  ZZM  41 5
M  ZZI  41 1
M  ZZM  42 5
M  ZZI  42 1
M  ZZM  43 5
M  ZZI  43 1
M  ZZM  44 5
M  ZZI  44 1
M  ZZM  45 5
M  ZZI  45 1
M  ZZM  46 5
M  ZZI  46 1
M  ZZM  47 5
M  ZZI  47 1
M  ZZM  48 5
M  ZZI  48 1
M  ZZM  49 5
M  ZZI  49 1
M  ZZM  50 5
M  ZZI  50 1
M  ZZM  51 5
M  ZZI  51 1
M  ZZM  52 5
M  ZZI  52 1
M  ZZM  53 5
M  ZZI  53 1
M  ZZM  54 21
M  ZZI  54 20
M  ZZM  55 5
M  ZZI  55 1
M  ZZM  56 5
M  ZZI  56 1
M  ZZM  57 5
M  ZZI  57 1
M  ZZM  58 5
M  ZZI  58 1
M  ZZM  59 5
M  ZZI  59 1
M  ZZM  60 5
M  ZZI  60 1
M  ZZM  61 5
M  ZZI  61 1
M  ZZM  62 5
M  ZZI  62 1
M  ZZM  63 5
M  ZZI  63 1
M  ZZM  64 5
M  ZZI  64 1
M  END
> <IX>
1

> <NAME>
VHL_5T8E_29.pdb

> <Score>
-21.303648

> <Natom>
64

> <Nflex>
8

> <Hbond>
-6.9226

> <Hphob>
-6.649769

> <VwInt>
-27.660025

> <Dsolv>
20.326506

> <SolEl>
10.066168

> <Eintl>
2.728915

> <RecConf>
ND

> <projPath>
VHL_maps/

> <NAME_>
VHL_5T8E_29.pdb

$$$$
