VHL_5UIU_9.pdb
  MOLSOFT 04032206423D

 65 67  0  0  1  0  0  0  0  0999 V2000
   18.1230   -6.6961   -5.1359 C   0  0  0  0  0  0  0  0  0  0  0  0
   16.9116   -5.8167   -4.9883 C   0  0  0  0  0  0  0  0  0  0  0  0
   15.8249   -6.1736   -5.4093 O   0  0  0  0  0  0  0  0  0  0  0  0
   17.1596   -4.6354   -4.3171 N   0  0  0  0  0  0  0  0  0  0  0  0
   16.1534   -3.5952   -4.0474 C   0  0  1  0  0  0  0  0  0  0  0  0
   15.8816   -3.4327   -2.5225 C   0  0  0  0  0  0  0  0  0  0  0  0
   15.4040   -4.7840   -1.9762 C   0  0  0  0  0  0  0  0  0  0  0  0
   14.7707   -2.4191   -2.2246 C   0  0  0  0  0  0  0  0  0  0  0  0
   17.1311   -2.9847   -1.7510 C   0  0  0  0  0  0  0  0  0  0  0  0
   16.6750   -2.3458   -4.7881 C   0  0  0  0  0  0  0  0  0  0  0  0
   17.8732   -2.0903   -4.8179 O   0  0  0  0  0  0  0  0  0  0  0  0
   15.7462   -1.5481   -5.4630 N   0  0  0  0  0  0  0  0  0  0  0  0
   16.1744   -0.6135   -6.4933 C   0  0  2  0  0  0  0  0  0  0  0  0
   16.5753    0.7532   -5.9285 C   0  0  0  0  0  0  0  0  0  0  0  0
   16.0224    1.2589   -4.9612 O   0  0  0  0  0  0  0  0  0  0  0  0
   17.5647    1.3830   -6.6637 N   0  0  0  0  0  0  0  0  0  0  0  0
   18.0190    2.7280   -6.3444 C   0  0  0  0  0  0  0  0  0  0  0  0
   19.4741    3.0208   -6.6401 C   0  0  0  0  0  0  0  0  0  0  0  0
   19.9797    4.2876   -6.3569 C   0  0  0  0  0  0  0  0  0  0  0  0
   21.3164    4.5981   -6.5583 C   0  0  0  0  0  0  0  0  0  0  0  0
   22.1960    3.6494   -7.0657 C   0  0  0  0  0  0  0  0  0  0  0  0
   23.6191    3.9237   -7.2287 C   0  0  0  0  0  0  0  0  0  0  0  0
   24.4350    3.8890   -8.3536 C   0  0  0  0  0  0  0  0  0  0  0  0
   24.0272    3.6219   -9.7503 C   0  0  0  0  0  0  0  0  0  0  0  0
   25.7733    4.1271   -8.1145 N   0  0  0  0  0  0  0  0  0  0  0  0
   25.9615    4.3607   -6.8359 C   0  0  0  0  0  0  0  0  0  0  0  0
   24.5697    4.3173   -5.8484 S   0  0  0  0  0  0  0  0  0  0  0  0
   21.6867    2.3989   -7.3813 C   0  0  0  0  0  0  0  0  0  0  0  0
   20.3586    2.0843   -7.1651 C   0  0  0  0  0  0  0  0  0  0  0  0
   14.9565   -0.4964   -7.3978 C   0  0  0  0  0  0  0  0  0  0  0  0
   13.7800   -0.6389   -6.4426 C   0  0  1  0  0  0  0  0  0  0  0  0
   12.6488   -1.2351   -7.0728 O   0  0  0  0  0  0  0  0  0  0  0  0
   14.2979   -1.5571   -5.3490 C   0  0  0  0  0  0  0  0  0  0  0  0
   19.0344   -6.0994   -5.2376 H   0  0  0  0  0  0  0  0  0  0  0  0
   18.0156   -7.3161   -6.0310 H   0  0  0  0  0  0  0  0  0  0  0  0
   18.2020   -7.3433   -4.2591 H   0  0  0  0  0  0  0  0  0  0  0  0
   18.1201   -4.4323   -4.0643 H   0  0  0  0  0  0  0  0  0  0  0  0
   15.2278   -3.9229   -4.5191 H   0  0  0  0  0  0  0  0  0  0  0  0
   15.1346   -4.7067   -0.9205 H   0  0  0  0  0  0  0  0  0  0  0  0
   16.1718   -5.5544   -2.0682 H   0  0  0  0  0  0  0  0  0  0  0  0
   14.5194   -5.1439   -2.5114 H   0  0  0  0  0  0  0  0  0  0  0  0
   15.0632   -1.4045   -2.5082 H   0  0  0  0  0  0  0  0  0  0  0  0
   14.5371   -2.3857   -1.1553 H   0  0  0  0  0  0  0  0  0  0  0  0
   13.8425   -2.6804   -2.7418 H   0  0  0  0  0  0  0  0  0  0  0  0
   16.9356   -2.9235   -0.6755 H   0  0  0  0  0  0  0  0  0  0  0  0
   17.4764   -1.9978   -2.0744 H   0  0  0  0  0  0  0  0  0  0  0  0
   17.9578   -3.6796   -1.8833 H   0  0  0  0  0  0  0  0  0  0  0  0
   17.0245   -1.0353   -7.0383 H   0  0  0  0  0  0  0  0  0  0  0  0
   17.9511    0.9070   -7.4724 H   0  0  0  0  0  0  0  0  0  0  0  0
   17.3901    3.4091   -6.9280 H   0  0  0  0  0  0  0  0  0  0  0  0
   17.8258    2.9195   -5.2835 H   0  0  0  0  0  0  0  0  0  0  0  0
   19.3250    5.0522   -5.9485 H   0  0  0  0  0  0  0  0  0  0  0  0
   21.6684    5.5939   -6.3056 H   0  0  0  0  0  0  0  0  0  0  0  0
   23.8739    2.5522   -9.9066 H   0  0  0  0  0  0  0  0  0  0  0  0
   24.7961    3.9535  -10.4538 H   0  0  0  0  0  0  0  0  0  0  0  0
   23.1030    4.1510   -9.9977 H   0  0  0  0  0  0  0  0  0  0  0  0
   26.9394    4.5691   -6.4255 H   0  0  0  0  0  0  0  0  0  0  0  0
   22.3358    1.6292   -7.7792 H   0  0  0  0  0  0  0  0  0  0  0  0
   20.0381    1.0767   -7.3964 H   0  0  0  0  0  0  0  0  0  0  0  0
   14.9155    0.4416   -7.9615 H   0  0  0  0  0  0  0  0  0  0  0  0
   14.9500   -1.3133   -8.1282 H   0  0  0  0  0  0  0  0  0  0  0  0
   13.4809    0.3307   -6.0280 H   0  0  0  0  0  0  0  0  0  0  0  0
   12.3374   -0.6344   -7.7734 H   0  0  0  0  0  0  0  0  0  0  0  0
   13.9020   -2.5718   -5.4094 H   0  0  0  0  0  0  0  0  0  0  0  0
   14.0156   -1.1451   -4.3802 H   0  0  0  0  0  0  0  0  0  0  0  0
  1 34  1  0  0  0  0
  1 35  1  0  0  0  0
  1 36  1  0  0  0  0
  1  2  1  0  0  0  0
  2  3  2  0  0  0  0
  2  4  1  0  0  0  0
  4 37  1  0  0  0  0
  5  4  1  0  0  0  0
  5 38  1  0  0  0  0
  5  6  1  0  0  0  0
  5 10  1  0  0  0  0
  6  7  1  0  0  0  0
  6  8  1  0  0  0  0
  6  9  1  0  0  0  0
  7 39  1  0  0  0  0
  7 40  1  0  0  0  0
  7 41  1  0  0  0  0
  8 42  1  0  0  0  0
  8 43  1  0  0  0  0
  8 44  1  0  0  0  0
  9 45  1  0  0  0  0
  9 46  1  0  0  0  0
  9 47  1  0  0  0  0
 10 11  2  0  0  0  0
 10 12  1  0  0  0  0
 12 33  1  0  0  0  0
 13 12  1  0  0  0  0
 13 30  1  0  0  0  0
 13 48  1  0  0  0  0
 13 14  1  0  0  0  0
 14 15  2  0  0  0  0
 14 16  1  0  0  0  0
 16 49  1  0  0  0  0
 16 17  1  0  0  0  0
 17 50  1  0  0  0  0
 17 51  1  0  0  0  0
 17 18  1  0  0  0  0
 18 19  1  0  0  0  0
 18 29  2  0  0  0  0
 19 52  1  0  0  0  0
 19 20  2  0  0  0  0
 20 53  1  0  0  0  0
 20 21  1  0  0  0  0
 21 28  2  0  0  0  0
 21 22  1  0  0  0  0
 22 23  2  0  0  0  0
 22 27  1  0  0  0  0
 23 24  1  0  0  0  0
 23 25  1  0  0  0  0
 24 54  1  0  0  0  0
 24 55  1  0  0  0  0
 24 56  1  0  0  0  0
 25 26  2  0  0  0  0
 26 57  1  0  0  0  0
 26 27  1  0  0  0  0
 28 58  1  0  0  0  0
 28 29  1  0  0  0  0
 29 59  1  0  0  0  0
 31 30  1  0  0  0  0
 30 60  1  0  0  0  0
 30 61  1  0  0  0  0
 31 33  1  0  0  0  0
 31 62  1  0  0  0  0
 31 32  1  0  0  0  0
 32 63  1  0  0  0  0
 33 64  1  0  0  0  0
 33 65  1  0  0  0  0
M  ZZC   1 c1
M  ZZC   2 c2
M  ZZC   3 o1
M  ZZC   4 n1
M  ZZC   5 c3
M  ZZC   6 c4
M  ZZC   7 c5
M  ZZC   8 c6
M  ZZC   9 c7
M  ZZC  10 c8
M  ZZC  11 o2
M  ZZC  12 n2
M  ZZC  13 c9
M  ZZC  14 c10
M  ZZC  15 o3
M  ZZC  16 n3
M  ZZC  17 c11
M  ZZC  18 c12
M  ZZC  19 c13
M  ZZC  20 c14
M  ZZC  21 c15
M  ZZC  22 c16
M  ZZC  23 c17
M  ZZC  24 c18
M  ZZC  25 n4
M  ZZC  26 c19
M  ZZC  27 s1
M  ZZC  28 c20
M  ZZC  29 c21
M  ZZC  30 c22
M  ZZC  31 c23
M  ZZC  32 o4
M  ZZC  33 c24
M  ZZC  34 h11
M  ZZC  35 h12
M  ZZC  36 h13
M  ZZC  37 h01
M  ZZC  38 h31
M  ZZC  39 h51
M  ZZC  40 h52
M  ZZC  41 h53
M  ZZC  42 h61
M  ZZC  43 h62
M  ZZC  44 h63
M  ZZC  45 h71
M  ZZC  46 h72
M  ZZC  47 h73
M  ZZC  48 h91
M  ZZC  49 h02
M  ZZC  50 h111
M  ZZC  51 h112
M  ZZC  52 h131
M  ZZC  53 h141
M  ZZC  54 h181
M  ZZC  55 h182
M  ZZC  56 h183
M  ZZC  57 h191
M  ZZC  58 h201
M  ZZC  59 h211
M  ZZC  60 h221
M  ZZC  61 h222
M  ZZC  62 h231
M  ZZC  63 h41
M  ZZC  64 h241
M  ZZC  65 h242
M  ZZM   1 1
M  ZZI   1 111
M  ZZM   2 3
M  ZZI   2 121
M  ZZM   3 7
M  ZZI   3 81
M  ZZM   4 10
M  ZZI   4 211
M  ZZM   5 1
M  ZZI   5 113
M  ZZM   6 1
M  ZZI   6 110
M  ZZM   7 1
M  ZZI   7 111
M  ZZM   8 1
M  ZZI   8 111
M  ZZM   9 1
M  ZZI   9 111
M  ZZM  10 3
M  ZZI  10 121
M  ZZM  11 7
M  ZZI  11 81
M  ZZM  12 10
M  ZZI  12 192
M  ZZM  13 1
M  ZZI  13 113
M  ZZM  14 3
M  ZZI  14 121
M  ZZM  15 7
M  ZZI  15 81
M  ZZM  16 10
M  ZZI  16 211
M  ZZM  17 1
M  ZZI  17 112
M  ZZM  18 37
M  ZZI  18 124
M  ZZM  19 37
M  ZZI  19 125
M  ZZM  20 37
M  ZZI  20 125
M  ZZM  21 37
M  ZZI  21 124
M  ZZM  22 63
M  ZZI  22 104
M  ZZM  23 64
M  ZZI  23 105
M  ZZM  24 1
M  ZZI  24 111
M  ZZM  25 66
M  ZZI  25 222
M  ZZM  26 63
M  ZZI  26 104
M  ZZM  27 44
M  ZZI  27 248
M  ZZM  28 37
M  ZZI  28 125
M  ZZM  29 37
M  ZZI  29 125
M  ZZM  30 1
M  ZZI  30 112
M  ZZM  31 1
M  ZZI  31 113
M  ZZM  32 6
M  ZZI  32 60
M  ZZM  33 1
M  ZZI  33 112
M  ZZM  34 5
M  ZZI  34 1
M  ZZM  35 5
M  ZZI  35 1
M  ZZM  36 5
M  ZZI  36 1
M  ZZM  37 28
M  ZZI  37 11
M  ZZM  38 5
M  ZZI  38 1
M  ZZM  39 5
M  ZZI  39 1
M  ZZM  40 5
M  ZZI  40 1
M  ZZM  41 5
M  ZZI  41 1
M  ZZM  42 5
M  ZZI  42 1
M  ZZM  43 5
M  ZZI  43 1
M  ZZM  44 5
M  ZZI  44 1
M  ZZM  45 5
M  ZZI  45 1
M  ZZM  46 5
M  ZZI  46 1
M  ZZM  47 5
M  ZZI  47 1
M  ZZM  48 5
M  ZZI  48 1
M  ZZM  49 28
M  ZZI  49 11
M  ZZM  50 5
M  ZZI  50 1
M  ZZM  51 5
M  ZZI  51 1
M  ZZM  52 5
M  ZZI  52 1
M  ZZM  53 5
M  ZZI  53 1
M  ZZM  54 5
M  ZZI  54 1
M  ZZM  55 5
M  ZZI  55 1
M  ZZM  56 5
M  ZZI  56 1
M  ZZM  57 5
M  ZZI  57 1
M  ZZM  58 5
M  ZZI  58 1
M  ZZM  59 5
M  ZZI  59 1
M  ZZM  60 5
M  ZZI  60 1
M  ZZM  61 5
M  ZZI  61 1
M  ZZM  62 5
M  ZZI  62 1
M  ZZM  63 21
M  ZZI  63 20
M  ZZM  64 5
M  ZZI  64 1
M  ZZM  65 5
M  ZZI  65 1
M  END
> <IX>
1

> <NAME>
VHL_5UIU_9.pdb

> <Score>
-11.298853

> <Natom>
65

> <Nflex>
8

> <Hbond>
-4.963915

> <Hphob>
-6.460197

> <VwInt>
-28.165046

> <Dsolv>
16.733502

> <SolEl>
17.012068

> <Eintl>
8.625231

> <RecConf>
ND

> <projPath>
VHL_maps/

> <NAME_>
VHL_5UIU_9.pdb

$$$$
