VHL_6UT0_6.pdb
  MOLSOFT 04032206433D

 65 67  0  0  1  0  0  0  0  0999 V2000
   18.3924   -6.9336   -5.3512 C   0  0  0  0  0  0  0  0  0  0  0  0
   17.2094   -6.0057   -5.3006 C   0  0  0  0  0  0  0  0  0  0  0  0
   16.1076   -6.3766   -5.6722 O   0  0  0  0  0  0  0  0  0  0  0  0
   17.5012   -4.7577   -4.7832 N   0  0  0  0  0  0  0  0  0  0  0  0
   16.5226   -3.6718   -4.6657 C   0  0  1  0  0  0  0  0  0  0  0  0
   15.8963   -3.5510   -3.2382 C   0  0  0  0  0  0  0  0  0  0  0  0
   14.6663   -2.6298   -3.2716 C   0  0  0  0  0  0  0  0  0  0  0  0
   16.8932   -2.9878   -2.2129 C   0  0  0  0  0  0  0  0  0  0  0  0
   15.4234   -4.9211   -2.7277 C   0  0  0  0  0  0  0  0  0  0  0  0
   17.2131   -2.3755   -5.1324 C   0  0  0  0  0  0  0  0  0  0  0  0
   18.3622   -2.1172   -4.8050 O   0  0  0  0  0  0  0  0  0  0  0  0
   16.4717   -1.4622   -5.8830 N   0  0  0  0  0  0  0  0  0  0  0  0
   17.0288   -0.1599   -6.2296 C   0  0  2  0  0  0  0  0  0  0  0  0
   17.1972    0.8066   -5.0649 C   0  0  0  0  0  0  0  0  0  0  0  0
   16.5341    0.7545   -4.0380 O   0  0  0  0  0  0  0  0  0  0  0  0
   18.1033    1.8069   -5.3619 N   0  0  0  0  0  0  0  0  0  0  0  0
   18.2093    3.0098   -4.5705 C   0  0  0  0  0  0  0  0  0  0  0  0
   17.2702    4.0604   -5.1050 C   0  0  0  0  0  0  0  0  0  0  0  0
   16.0657    4.3309   -4.4634 C   0  0  0  0  0  0  0  0  0  0  0  0
   15.1921    5.2795   -4.9673 C   0  0  0  0  0  0  0  0  0  0  0  0
   15.4983    5.9782   -6.1309 C   0  0  0  0  0  0  0  0  0  0  0  0
   14.6140    7.0173   -6.6364 C   0  0  0  0  0  0  0  0  0  0  0  0
   13.9331    7.1327   -7.8419 C   0  0  0  0  0  0  0  0  0  0  0  0
   13.8953    6.1433   -8.9423 C   0  0  0  0  0  0  0  0  0  0  0  0
   13.2279    8.3091   -8.0015 N   0  0  0  0  0  0  0  0  0  0  0  0
   13.3736    9.0557   -6.9300 C   0  0  0  0  0  0  0  0  0  0  0  0
   14.3198    8.4082   -5.6710 S   0  0  0  0  0  0  0  0  0  0  0  0
   16.6862    5.6851   -6.7920 C   0  0  0  0  0  0  0  0  0  0  0  0
   17.5620    4.7405   -6.2843 C   0  0  0  0  0  0  0  0  0  0  0  0
   16.0397    0.4533   -7.2150 C   0  0  0  0  0  0  0  0  0  0  0  0
   15.3768   -0.7500   -7.8432 C   0  0  1  0  0  0  0  0  0  0  0  0
   16.1769   -1.2284   -8.9336 O   0  0  0  0  0  0  0  0  0  0  0  0
   15.3243   -1.7690   -6.7130 C   0  0  0  0  0  0  0  0  0  0  0  0
   19.3372   -6.3847   -5.2971 H   0  0  0  0  0  0  0  0  0  0  0  0
   18.3725   -7.4875   -6.2936 H   0  0  0  0  0  0  0  0  0  0  0  0
   18.3282   -7.6364   -4.5176 H   0  0  0  0  0  0  0  0  0  0  0  0
   18.4509   -4.5713   -4.4836 H   0  0  0  0  0  0  0  0  0  0  0  0
   15.7371   -3.9119   -5.3684 H   0  0  0  0  0  0  0  0  0  0  0  0
   14.9273   -1.6048   -3.5473 H   0  0  0  0  0  0  0  0  0  0  0  0
   14.1779   -2.5785   -2.2930 H   0  0  0  0  0  0  0  0  0  0  0  0
   13.9187   -2.9876   -3.9866 H   0  0  0  0  0  0  0  0  0  0  0  0
   16.4733   -2.9969   -1.2018 H   0  0  0  0  0  0  0  0  0  0  0  0
   17.1674   -1.9514   -2.4313 H   0  0  0  0  0  0  0  0  0  0  0  0
   17.8143   -3.5730   -2.1849 H   0  0  0  0  0  0  0  0  0  0  0  0
   14.9368   -4.8399   -1.7507 H   0  0  0  0  0  0  0  0  0  0  0  0
   16.2513   -5.6253   -2.6093 H   0  0  0  0  0  0  0  0  0  0  0  0
   14.6972   -5.3686   -3.4091 H   0  0  0  0  0  0  0  0  0  0  0  0
   18.0030   -0.3242   -6.6920 H   0  0  0  0  0  0  0  0  0  0  0  0
   18.6446    1.7567   -6.2185 H   0  0  0  0  0  0  0  0  0  0  0  0
   17.9923    2.7828   -3.5211 H   0  0  0  0  0  0  0  0  0  0  0  0
   19.2457    3.3593   -4.6254 H   0  0  0  0  0  0  0  0  0  0  0  0
   15.7960    3.7953   -3.5574 H   0  0  0  0  0  0  0  0  0  0  0  0
   14.2623    5.4700   -4.4387 H   0  0  0  0  0  0  0  0  0  0  0  0
   14.8642    6.0865   -9.4463 H   0  0  0  0  0  0  0  0  0  0  0  0
   13.1449    6.4155   -9.6899 H   0  0  0  0  0  0  0  0  0  0  0  0
   13.6426    5.1473   -8.5663 H   0  0  0  0  0  0  0  0  0  0  0  0
   12.9261   10.0320   -6.8342 H   0  0  0  0  0  0  0  0  0  0  0  0
   16.9522    6.2135   -7.7033 H   0  0  0  0  0  0  0  0  0  0  0  0
   18.4860    4.5388   -6.8186 H   0  0  0  0  0  0  0  0  0  0  0  0
   15.2900    1.0600   -6.6934 H   0  0  0  0  0  0  0  0  0  0  0  0
   16.5430    1.0933   -7.9477 H   0  0  0  0  0  0  0  0  0  0  0  0
   14.3831   -0.5143   -8.2238 H   0  0  0  0  0  0  0  0  0  0  0  0
   17.1103   -1.1767   -8.6562 H   0  0  0  0  0  0  0  0  0  0  0  0
   15.3834   -2.7927   -7.0898 H   0  0  0  0  0  0  0  0  0  0  0  0
   14.4269   -1.6398   -6.0999 H   0  0  0  0  0  0  0  0  0  0  0  0
  1 34  1  0  0  0  0
  1 35  1  0  0  0  0
  1 36  1  0  0  0  0
  1  2  1  0  0  0  0
  2  3  2  0  0  0  0
  2  4  1  0  0  0  0
  4 37  1  0  0  0  0
  5  4  1  0  0  0  0
  5 38  1  0  0  0  0
  5  6  1  0  0  0  0
  5 10  1  0  0  0  0
  6  7  1  0  0  0  0
  6  8  1  0  0  0  0
  6  9  1  0  0  0  0
  7 39  1  0  0  0  0
  7 40  1  0  0  0  0
  7 41  1  0  0  0  0
  8 42  1  0  0  0  0
  8 43  1  0  0  0  0
  8 44  1  0  0  0  0
  9 45  1  0  0  0  0
  9 46  1  0  0  0  0
  9 47  1  0  0  0  0
 10 11  2  0  0  0  0
 10 12  1  0  0  0  0
 12 33  1  0  0  0  0
 13 12  1  0  0  0  0
 13 30  1  0  0  0  0
 13 48  1  0  0  0  0
 13 14  1  0  0  0  0
 14 15  2  0  0  0  0
 14 16  1  0  0  0  0
 16 49  1  0  0  0  0
 16 17  1  0  0  0  0
 17 50  1  0  0  0  0
 17 51  1  0  0  0  0
 17 18  1  0  0  0  0
 18 19  1  0  0  0  0
 18 29  2  0  0  0  0
 19 52  1  0  0  0  0
 19 20  2  0  0  0  0
 20 53  1  0  0  0  0
 20 21  1  0  0  0  0
 21 28  2  0  0  0  0
 21 22  1  0  0  0  0
 22 23  2  0  0  0  0
 22 27  1  0  0  0  0
 23 24  1  0  0  0  0
 23 25  1  0  0  0  0
 24 54  1  0  0  0  0
 24 55  1  0  0  0  0
 24 56  1  0  0  0  0
 25 26  2  0  0  0  0
 26 57  1  0  0  0  0
 26 27  1  0  0  0  0
 28 58  1  0  0  0  0
 28 29  1  0  0  0  0
 29 59  1  0  0  0  0
 31 30  1  0  0  0  0
 30 60  1  0  0  0  0
 30 61  1  0  0  0  0
 31 33  1  0  0  0  0
 31 62  1  0  0  0  0
 31 32  1  0  0  0  0
 32 63  1  0  0  0  0
 33 64  1  0  0  0  0
 33 65  1  0  0  0  0
M  ZZC   1 c1
M  ZZC   2 c2
M  ZZC   3 o1
M  ZZC   4 n1
M  ZZC   5 c3
M  ZZC   6 c4
M  ZZC   7 c5
M  ZZC   8 c6
M  ZZC   9 c7
M  ZZC  10 c8
M  ZZC  11 o2
M  ZZC  12 n2
M  ZZC  13 c9
M  ZZC  14 c10
M  ZZC  15 o3
M  ZZC  16 n3
M  ZZC  17 c11
M  ZZC  18 c12
M  ZZC  19 c13
M  ZZC  20 c14
M  ZZC  21 c15
M  ZZC  22 c16
M  ZZC  23 c17
M  ZZC  24 c18
M  ZZC  25 n4
M  ZZC  26 c19
M  ZZC  27 s1
M  ZZC  28 c20
M  ZZC  29 c21
M  ZZC  30 c22
M  ZZC  31 c23
M  ZZC  32 o4
M  ZZC  33 c24
M  ZZC  34 h11
M  ZZC  35 h12
M  ZZC  36 h13
M  ZZC  37 h01
M  ZZC  38 h31
M  ZZC  39 h51
M  ZZC  40 h52
M  ZZC  41 h53
M  ZZC  42 h61
M  ZZC  43 h62
M  ZZC  44 h63
M  ZZC  45 h71
M  ZZC  46 h72
M  ZZC  47 h73
M  ZZC  48 h91
M  ZZC  49 h02
M  ZZC  50 h111
M  ZZC  51 h112
M  ZZC  52 h131
M  ZZC  53 h141
M  ZZC  54 h181
M  ZZC  55 h182
M  ZZC  56 h183
M  ZZC  57 h191
M  ZZC  58 h201
M  ZZC  59 h211
M  ZZC  60 h221
M  ZZC  61 h222
M  ZZC  62 h231
M  ZZC  63 h41
M  ZZC  64 h241
M  ZZC  65 h242
M  ZZM   1 1
M  ZZI   1 111
M  ZZM   2 3
M  ZZI   2 121
M  ZZM   3 7
M  ZZI   3 81
M  ZZM   4 10
M  ZZI   4 211
M  ZZM   5 1
M  ZZI   5 113
M  ZZM   6 1
M  ZZI   6 110
M  ZZM   7 1
M  ZZI   7 111
M  ZZM   8 1
M  ZZI   8 111
M  ZZM   9 1
M  ZZI   9 111
M  ZZM  10 3
M  ZZI  10 121
M  ZZM  11 7
M  ZZI  11 81
M  ZZM  12 10
M  ZZI  12 192
M  ZZM  13 1
M  ZZI  13 113
M  ZZM  14 3
M  ZZI  14 121
M  ZZM  15 7
M  ZZI  15 81
M  ZZM  16 10
M  ZZI  16 211
M  ZZM  17 1
M  ZZI  17 112
M  ZZM  18 37
M  ZZI  18 124
M  ZZM  19 37
M  ZZI  19 125
M  ZZM  20 37
M  ZZI  20 125
M  ZZM  21 37
M  ZZI  21 124
M  ZZM  22 63
M  ZZI  22 104
M  ZZM  23 64
M  ZZI  23 105
M  ZZM  24 1
M  ZZI  24 111
M  ZZM  25 66
M  ZZI  25 222
M  ZZM  26 63
M  ZZI  26 104
M  ZZM  27 44
M  ZZI  27 248
M  ZZM  28 37
M  ZZI  28 125
M  ZZM  29 37
M  ZZI  29 125
M  ZZM  30 1
M  ZZI  30 112
M  ZZM  31 1
M  ZZI  31 113
M  ZZM  32 6
M  ZZI  32 60
M  ZZM  33 1
M  ZZI  33 112
M  ZZM  34 5
M  ZZI  34 1
M  ZZM  35 5
M  ZZI  35 1
M  ZZM  36 5
M  ZZI  36 1
M  ZZM  37 28
M  ZZI  37 11
M  ZZM  38 5
M  ZZI  38 1
M  ZZM  39 5
M  ZZI  39 1
M  ZZM  40 5
M  ZZI  40 1
M  ZZM  41 5
M  ZZI  41 1
M  ZZM  42 5
M  ZZI  42 1
M  ZZM  43 5
M  ZZI  43 1
M  ZZM  44 5
M  ZZI  44 1
M  ZZM  45 5
M  ZZI  45 1
M  ZZM  46 5
M  ZZI  46 1
M  ZZM  47 5
M  ZZI  47 1
M  ZZM  48 5
M  ZZI  48 1
M  ZZM  49 28
M  ZZI  49 11
M  ZZM  50 5
M  ZZI  50 1
M  ZZM  51 5
M  ZZI  51 1
M  ZZM  52 5
M  ZZI  52 1
M  ZZM  53 5
M  ZZI  53 1
M  ZZM  54 5
M  ZZI  54 1
M  ZZM  55 5
M  ZZI  55 1
M  ZZM  56 5
M  ZZI  56 1
M  ZZM  57 5
M  ZZI  57 1
M  ZZM  58 5
M  ZZI  58 1
M  ZZM  59 5
M  ZZI  59 1
M  ZZM  60 5
M  ZZI  60 1
M  ZZM  61 5
M  ZZI  61 1
M  ZZM  62 5
M  ZZI  62 1
M  ZZM  63 21
M  ZZI  63 20
M  ZZM  64 5
M  ZZI  64 1
M  ZZM  65 5
M  ZZI  65 1
M  END
> <IX>
1

> <NAME>
VHL_6UT0_6.pdb

> <Score>
-24.61589

> <Natom>
65

> <Nflex>
8

> <Hbond>
-7.863892

> <Hphob>
-6.44075

> <VwInt>
-30.310468

> <Dsolv>
21.124376

> <SolEl>
10.339977

> <Eintl>
4.063098

> <RecConf>
ND

> <projPath>
VHL_maps/

> <NAME_>
VHL_6UT0_6.pdb

$$$$
