VHL_2GQG_5.pdb
  MOLSOFT 04032206383D

 65 67  0  0  1  0  0  0  0  0999 V2000
   17.2581   -6.2202   -4.4001 C   0  0  0  0  0  0  0  0  0  0  0  0
   16.4254   -5.1060   -3.8214 C   0  0  0  0  0  0  0  0  0  0  0  0
   15.3102   -5.2984   -3.3622 O   0  0  0  0  0  0  0  0  0  0  0  0
   17.0345   -3.8707   -3.8681 N   0  0  0  0  0  0  0  0  0  0  0  0
   16.3050   -2.6392   -3.5551 C   0  0  1  0  0  0  0  0  0  0  0  0
   16.5886   -2.0704   -2.1323 C   0  0  0  0  0  0  0  0  0  0  0  0
   18.0230   -1.5428   -1.9792 C   0  0  0  0  0  0  0  0  0  0  0  0
   16.3572   -3.1570   -1.0684 C   0  0  0  0  0  0  0  0  0  0  0  0
   15.6148   -0.9192   -1.8353 C   0  0  0  0  0  0  0  0  0  0  0  0
   16.6583   -1.6764   -4.7063 C   0  0  0  0  0  0  0  0  0  0  0  0
   17.8263   -1.4356   -4.9890 O   0  0  0  0  0  0  0  0  0  0  0  0
   15.5969   -1.1463   -5.4389 N   0  0  0  0  0  0  0  0  0  0  0  0
   15.8296   -0.3749   -6.6510 C   0  0  2  0  0  0  0  0  0  0  0  0
   16.1645    1.0819   -6.3222 C   0  0  0  0  0  0  0  0  0  0  0  0
   15.4837    1.7673   -5.5708 O   0  0  0  0  0  0  0  0  0  0  0  0
   17.2985    1.5446   -6.9610 N   0  0  0  0  0  0  0  0  0  0  0  0
   17.7836    2.8978   -6.7483 C   0  0  0  0  0  0  0  0  0  0  0  0
   19.2332    3.1114   -7.1160 C   0  0  0  0  0  0  0  0  0  0  0  0
   20.1471    2.0651   -7.1683 C   0  0  0  0  0  0  0  0  0  0  0  0
   21.4758    2.2949   -7.4613 C   0  0  0  0  0  0  0  0  0  0  0  0
   21.9514    3.5781   -7.6820 C   0  0  0  0  0  0  0  0  0  0  0  0
   23.3682    3.8008   -7.9263 C   0  0  0  0  0  0  0  0  0  0  0  0
   24.3432    4.3468   -7.1036 C   0  0  0  0  0  0  0  0  0  0  0  0
   24.1551    4.8731   -5.7323 C   0  0  0  0  0  0  0  0  0  0  0  0
   25.6148    4.3698   -7.6399 N   0  0  0  0  0  0  0  0  0  0  0  0
   25.5930    3.8627   -8.8521 C   0  0  0  0  0  0  0  0  0  0  0  0
   24.0723    3.3395   -9.4249 S   0  0  0  0  0  0  0  0  0  0  0  0
   21.0495    4.6328   -7.6224 C   0  0  0  0  0  0  0  0  0  0  0  0
   19.7097    4.3998   -7.3481 C   0  0  0  0  0  0  0  0  0  0  0  0
   14.5167   -0.4738   -7.4067 C   0  0  0  0  0  0  0  0  0  0  0  0
   13.4633   -0.6006   -6.3166 C   0  0  1  0  0  0  0  0  0  0  0  0
   12.3276   -1.3289   -6.7827 O   0  0  0  0  0  0  0  0  0  0  0  0
   14.1791   -1.3814   -5.2263 C   0  0  0  0  0  0  0  0  0  0  0  0
   18.1717   -5.8425   -4.8687 H   0  0  0  0  0  0  0  0  0  0  0  0
   16.6728   -6.7407   -5.1644 H   0  0  0  0  0  0  0  0  0  0  0  0
   17.5270   -6.9241   -3.6097 H   0  0  0  0  0  0  0  0  0  0  0  0
   17.9897   -3.7991   -4.2079 H   0  0  0  0  0  0  0  0  0  0  0  0
   15.2435   -2.8931   -3.6042 H   0  0  0  0  0  0  0  0  0  0  0  0
   18.2388   -1.2673   -0.9420 H   0  0  0  0  0  0  0  0  0  0  0  0
   18.1994   -0.6481   -2.5832 H   0  0  0  0  0  0  0  0  0  0  0  0
   18.7576   -2.2940   -2.2727 H   0  0  0  0  0  0  0  0  0  0  0  0
   16.4626   -2.7552   -0.0554 H   0  0  0  0  0  0  0  0  0  0  0  0
   17.0755   -3.9770   -1.1592 H   0  0  0  0  0  0  0  0  0  0  0  0
   15.3513   -3.5836   -1.1426 H   0  0  0  0  0  0  0  0  0  0  0  0
   15.7384   -0.0975   -2.5483 H   0  0  0  0  0  0  0  0  0  0  0  0
   15.7768   -0.5048   -0.8345 H   0  0  0  0  0  0  0  0  0  0  0  0
   14.5712   -1.2430   -1.8971 H   0  0  0  0  0  0  0  0  0  0  0  0
   16.6484   -0.8240   -7.2251 H   0  0  0  0  0  0  0  0  0  0  0  0
   17.8039    0.9246   -7.5879 H   0  0  0  0  0  0  0  0  0  0  0  0
   17.1454    3.5525   -7.3518 H   0  0  0  0  0  0  0  0  0  0  0  0
   17.6357    3.1626   -5.6957 H   0  0  0  0  0  0  0  0  0  0  0  0
   19.8386    1.0442   -6.9749 H   0  0  0  0  0  0  0  0  0  0  0  0
   22.1471    1.4464   -7.5064 H   0  0  0  0  0  0  0  0  0  0  0  0
   23.6218    5.8276   -5.7564 H   0  0  0  0  0  0  0  0  0  0  0  0
   25.1176    5.0355   -5.2385 H   0  0  0  0  0  0  0  0  0  0  0  0
   23.5828    4.1735   -5.1171 H   0  0  0  0  0  0  0  0  0  0  0  0
   26.4833    3.7800   -9.4590 H   0  0  0  0  0  0  0  0  0  0  0  0
   21.3868    5.6514   -7.7896 H   0  0  0  0  0  0  0  0  0  0  0  0
   19.0307    5.2465   -7.3041 H   0  0  0  0  0  0  0  0  0  0  0  0
   14.3247    0.3773   -8.0687 H   0  0  0  0  0  0  0  0  0  0  0  0
   14.5237   -1.3770   -8.0254 H   0  0  0  0  0  0  0  0  0  0  0  0
   13.1372    0.3793   -5.9505 H   0  0  0  0  0  0  0  0  0  0  0  0
   11.8809   -0.7943   -7.4645 H   0  0  0  0  0  0  0  0  0  0  0  0
   13.9751   -2.4547   -5.2910 H   0  0  0  0  0  0  0  0  0  0  0  0
   13.8870   -1.0426   -4.2283 H   0  0  0  0  0  0  0  0  0  0  0  0
  1 34  1  0  0  0  0
  1 35  1  0  0  0  0
  1 36  1  0  0  0  0
  1  2  1  0  0  0  0
  2  3  2  0  0  0  0
  2  4  1  0  0  0  0
  4 37  1  0  0  0  0
  5  4  1  0  0  0  0
  5 38  1  0  0  0  0
  5  6  1  0  0  0  0
  5 10  1  0  0  0  0
  6  7  1  0  0  0  0
  6  8  1  0  0  0  0
  6  9  1  0  0  0  0
  7 39  1  0  0  0  0
  7 40  1  0  0  0  0
  7 41  1  0  0  0  0
  8 42  1  0  0  0  0
  8 43  1  0  0  0  0
  8 44  1  0  0  0  0
  9 45  1  0  0  0  0
  9 46  1  0  0  0  0
  9 47  1  0  0  0  0
 10 11  2  0  0  0  0
 10 12  1  0  0  0  0
 12 33  1  0  0  0  0
 13 12  1  0  0  0  0
 13 30  1  0  0  0  0
 13 48  1  0  0  0  0
 13 14  1  0  0  0  0
 14 15  2  0  0  0  0
 14 16  1  0  0  0  0
 16 49  1  0  0  0  0
 16 17  1  0  0  0  0
 17 50  1  0  0  0  0
 17 51  1  0  0  0  0
 17 18  1  0  0  0  0
 18 19  1  0  0  0  0
 18 29  2  0  0  0  0
 19 52  1  0  0  0  0
 19 20  2  0  0  0  0
 20 53  1  0  0  0  0
 20 21  1  0  0  0  0
 21 28  2  0  0  0  0
 21 22  1  0  0  0  0
 22 23  2  0  0  0  0
 22 27  1  0  0  0  0
 23 24  1  0  0  0  0
 23 25  1  0  0  0  0
 24 54  1  0  0  0  0
 24 55  1  0  0  0  0
 24 56  1  0  0  0  0
 25 26  2  0  0  0  0
 26 57  1  0  0  0  0
 26 27  1  0  0  0  0
 28 58  1  0  0  0  0
 28 29  1  0  0  0  0
 29 59  1  0  0  0  0
 31 30  1  0  0  0  0
 30 60  1  0  0  0  0
 30 61  1  0  0  0  0
 31 33  1  0  0  0  0
 31 62  1  0  0  0  0
 31 32  1  0  0  0  0
 32 63  1  0  0  0  0
 33 64  1  0  0  0  0
 33 65  1  0  0  0  0
M  ZZC   1 c1
M  ZZC   2 c2
M  ZZC   3 o1
M  ZZC   4 n1
M  ZZC   5 c3
M  ZZC   6 c4
M  ZZC   7 c5
M  ZZC   8 c6
M  ZZC   9 c7
M  ZZC  10 c8
M  ZZC  11 o2
M  ZZC  12 n2
M  ZZC  13 c9
M  ZZC  14 c10
M  ZZC  15 o3
M  ZZC  16 n3
M  ZZC  17 c11
M  ZZC  18 c12
M  ZZC  19 c13
M  ZZC  20 c14
M  ZZC  21 c15
M  ZZC  22 c16
M  ZZC  23 c17
M  ZZC  24 c18
M  ZZC  25 n4
M  ZZC  26 c19
M  ZZC  27 s1
M  ZZC  28 c20
M  ZZC  29 c21
M  ZZC  30 c22
M  ZZC  31 c23
M  ZZC  32 o4
M  ZZC  33 c24
M  ZZC  34 h11
M  ZZC  35 h12
M  ZZC  36 h13
M  ZZC  37 h01
M  ZZC  38 h31
M  ZZC  39 h51
M  ZZC  40 h52
M  ZZC  41 h53
M  ZZC  42 h61
M  ZZC  43 h62
M  ZZC  44 h63
M  ZZC  45 h71
M  ZZC  46 h72
M  ZZC  47 h73
M  ZZC  48 h91
M  ZZC  49 h02
M  ZZC  50 h111
M  ZZC  51 h112
M  ZZC  52 h131
M  ZZC  53 h141
M  ZZC  54 h181
M  ZZC  55 h182
M  ZZC  56 h183
M  ZZC  57 h191
M  ZZC  58 h201
M  ZZC  59 h211
M  ZZC  60 h221
M  ZZC  61 h222
M  ZZC  62 h231
M  ZZC  63 h41
M  ZZC  64 h241
M  ZZC  65 h242
M  ZZM   1 1
M  ZZI   1 111
M  ZZM   2 3
M  ZZI   2 121
M  ZZM   3 7
M  ZZI   3 81
M  ZZM   4 10
M  ZZI   4 211
M  ZZM   5 1
M  ZZI   5 113
M  ZZM   6 1
M  ZZI   6 110
M  ZZM   7 1
M  ZZI   7 111
M  ZZM   8 1
M  ZZI   8 111
M  ZZM   9 1
M  ZZI   9 111
M  ZZM  10 3
M  ZZI  10 121
M  ZZM  11 7
M  ZZI  11 81
M  ZZM  12 10
M  ZZI  12 192
M  ZZM  13 1
M  ZZI  13 113
M  ZZM  14 3
M  ZZI  14 121
M  ZZM  15 7
M  ZZI  15 81
M  ZZM  16 10
M  ZZI  16 211
M  ZZM  17 1
M  ZZI  17 112
M  ZZM  18 37
M  ZZI  18 124
M  ZZM  19 37
M  ZZI  19 125
M  ZZM  20 37
M  ZZI  20 125
M  ZZM  21 37
M  ZZI  21 124
M  ZZM  22 63
M  ZZI  22 104
M  ZZM  23 64
M  ZZI  23 105
M  ZZM  24 1
M  ZZI  24 111
M  ZZM  25 66
M  ZZI  25 222
M  ZZM  26 63
M  ZZI  26 104
M  ZZM  27 44
M  ZZI  27 248
M  ZZM  28 37
M  ZZI  28 125
M  ZZM  29 37
M  ZZI  29 125
M  ZZM  30 1
M  ZZI  30 112
M  ZZM  31 1
M  ZZI  31 113
M  ZZM  32 6
M  ZZI  32 60
M  ZZM  33 1
M  ZZI  33 112
M  ZZM  34 5
M  ZZI  34 1
M  ZZM  35 5
M  ZZI  35 1
M  ZZM  36 5
M  ZZI  36 1
M  ZZM  37 28
M  ZZI  37 11
M  ZZM  38 5
M  ZZI  38 1
M  ZZM  39 5
M  ZZI  39 1
M  ZZM  40 5
M  ZZI  40 1
M  ZZM  41 5
M  ZZI  41 1
M  ZZM  42 5
M  ZZI  42 1
M  ZZM  43 5
M  ZZI  43 1
M  ZZM  44 5
M  ZZI  44 1
M  ZZM  45 5
M  ZZI  45 1
M  ZZM  46 5
M  ZZI  46 1
M  ZZM  47 5
M  ZZI  47 1
M  ZZM  48 5
M  ZZI  48 1
M  ZZM  49 28
M  ZZI  49 11
M  ZZM  50 5
M  ZZI  50 1
M  ZZM  51 5
M  ZZI  51 1
M  ZZM  52 5
M  ZZI  52 1
M  ZZM  53 5
M  ZZI  53 1
M  ZZM  54 5
M  ZZI  54 1
M  ZZM  55 5
M  ZZI  55 1
M  ZZM  56 5
M  ZZI  56 1
M  ZZM  57 5
M  ZZI  57 1
M  ZZM  58 5
M  ZZI  58 1
M  ZZM  59 5
M  ZZI  59 1
M  ZZM  60 5
M  ZZI  60 1
M  ZZM  61 5
M  ZZI  61 1
M  ZZM  62 5
M  ZZI  62 1
M  ZZM  63 21
M  ZZI  63 20
M  ZZM  64 5
M  ZZI  64 1
M  ZZM  65 5
M  ZZI  65 1
M  END
> <IX>
1

> <NAME>
VHL_2GQG_5.pdb

> <Score>
-17.305747

> <Natom>
65

> <Nflex>
8

> <Hbond>
-4.888081

> <Hphob>
-6.215474

> <VwInt>
-32.78386

> <Dsolv>
17.330793

> <SolEl>
17.374353

> <Eintl>
4.573598

> <RecConf>
ND

> <projPath>
VHL_maps/

> <NAME_>
VHL_2GQG_5.pdb

$$$$
