VHL_4QNQ_15.pdb
  MOLSOFT 04032206393D

 68 70  0  0  1  0  0  0  0  0999 V2000
   18.0803   -6.8039   -5.1245 C   0  0  0  0  0  0  0  0  0  0  0  0
   16.8884   -5.8941   -5.0068 C   0  0  0  0  0  0  0  0  0  0  0  0
   15.8053   -6.2213   -5.4597 O   0  0  0  0  0  0  0  0  0  0  0  0
   17.1485   -4.7233   -4.3230 N   0  0  0  0  0  0  0  0  0  0  0  0
   16.1677   -3.6527   -4.0812 C   0  0  1  0  0  0  0  0  0  0  0  0
   15.8585   -3.4829   -2.5643 C   0  0  0  0  0  0  0  0  0  0  0  0
   15.3613   -4.8287   -2.0223 C   0  0  0  0  0  0  0  0  0  0  0  0
   14.7443   -2.4625   -2.3045 C   0  0  0  0  0  0  0  0  0  0  0  0
   17.0889   -3.0354   -1.7624 C   0  0  0  0  0  0  0  0  0  0  0  0
   16.7625   -2.4247   -4.7987 C   0  0  0  0  0  0  0  0  0  0  0  0
   17.9700   -2.2189   -4.7867 O   0  0  0  0  0  0  0  0  0  0  0  0
   15.8983   -1.5722   -5.4905 N   0  0  0  0  0  0  0  0  0  0  0  0
   16.4286   -0.6111   -6.4452 C   0  0  2  0  0  0  0  0  0  0  0  0
   16.9238    0.6680   -5.7668 C   0  0  0  0  0  0  0  0  0  0  0  0
   16.5359    1.0247   -4.6625 O   0  0  0  0  0  0  0  0  0  0  0  0
   17.8173    1.3851   -6.5459 N   0  0  0  0  0  0  0  0  0  0  0  0
   18.4249    2.6351   -6.1089 C   0  0  1  0  0  0  0  0  0  0  0  0
   19.8028    2.8008   -6.7552 C   0  0  0  0  0  0  0  0  0  0  0  0
   17.4972    3.8166   -6.3472 C   0  0  0  0  0  0  0  0  0  0  0  0
   16.5386    4.1466   -5.3903 C   0  0  0  0  0  0  0  0  0  0  0  0
   15.6576    5.1970   -5.5772 C   0  0  0  0  0  0  0  0  0  0  0  0
   15.7073    5.9626   -6.7342 C   0  0  0  0  0  0  0  0  0  0  0  0
   14.7759    7.0584   -6.9527 C   0  0  0  0  0  0  0  0  0  0  0  0
   13.8271    7.2381   -7.9479 C   0  0  0  0  0  0  0  0  0  0  0  0
   13.5026    6.2894   -9.0346 C   0  0  0  0  0  0  0  0  0  0  0  0
   13.1341    8.4298   -7.8880 N   0  0  0  0  0  0  0  0  0  0  0  0
   13.5479    9.1266   -6.8533 C   0  0  0  0  0  0  0  0  0  0  0  0
   14.7610    8.4102   -5.8908 S   0  0  0  0  0  0  0  0  0  0  0  0
   16.6612    5.6483   -7.6941 C   0  0  0  0  0  0  0  0  0  0  0  0
   17.5403    4.5956   -7.5039 C   0  0  0  0  0  0  0  0  0  0  0  0
   15.2700   -0.3522   -7.3955 C   0  0  0  0  0  0  0  0  0  0  0  0
   14.0387   -0.5044   -6.5185 C   0  0  1  0  0  0  0  0  0  0  0  0
   12.9357   -0.9829   -7.2862 O   0  0  0  0  0  0  0  0  0  0  0  0
   14.4478   -1.5269   -5.4679 C   0  0  0  0  0  0  0  0  0  0  0  0
   19.0095   -6.2301   -5.1931 H   0  0  0  0  0  0  0  0  0  0  0  0
   17.9840   -7.4145   -6.0272 H   0  0  0  0  0  0  0  0  0  0  0  0
   18.1150   -7.4579   -4.2498 H   0  0  0  0  0  0  0  0  0  0  0  0
   18.1088   -4.5439   -4.0508 H   0  0  0  0  0  0  0  0  0  0  0  0
   15.2447   -3.9423   -4.5813 H   0  0  0  0  0  0  0  0  0  0  0  0
   15.0770   -4.7478   -0.9708 H   0  0  0  0  0  0  0  0  0  0  0  0
   16.1248   -5.6052   -2.0987 H   0  0  0  0  0  0  0  0  0  0  0  0
   14.4830   -5.1833   -2.5712 H   0  0  0  0  0  0  0  0  0  0  0  0
   15.0542   -1.4491   -2.5737 H   0  0  0  0  0  0  0  0  0  0  0  0
   14.4717   -2.4303   -1.2444 H   0  0  0  0  0  0  0  0  0  0  0  0
   13.8345   -2.7153   -2.8577 H   0  0  0  0  0  0  0  0  0  0  0  0
   16.8674   -2.9753   -0.6919 H   0  0  0  0  0  0  0  0  0  0  0  0
   17.4417   -2.0478   -2.0754 H   0  0  0  0  0  0  0  0  0  0  0  0
   17.9190   -3.7298   -1.8759 H   0  0  0  0  0  0  0  0  0  0  0  0
   17.2715   -1.0567   -6.9781 H   0  0  0  0  0  0  0  0  0  0  0  0
   18.1111    0.9931   -7.4356 H   0  0  0  0  0  0  0  0  0  0  0  0
   18.5923    2.5522   -5.0286 H   0  0  0  0  0  0  0  0  0  0  0  0
   20.2875    3.7176   -6.4135 H   0  0  0  0  0  0  0  0  0  0  0  0
   19.7300    2.8457   -7.8463 H   0  0  0  0  0  0  0  0  0  0  0  0
   20.4857    1.9881   -6.4959 H   0  0  0  0  0  0  0  0  0  0  0  0
   16.4652    3.5722   -4.4716 H   0  0  0  0  0  0  0  0  0  0  0  0
   14.9175    5.4053   -4.8097 H   0  0  0  0  0  0  0  0  0  0  0  0
   14.2727    6.3154   -9.8090 H   0  0  0  0  0  0  0  0  0  0  0  0
   12.5471    6.5412   -9.4965 H   0  0  0  0  0  0  0  0  0  0  0  0
   13.4269    5.2650   -8.6578 H   0  0  0  0  0  0  0  0  0  0  0  0
   13.1498   10.1012   -6.6134 H   0  0  0  0  0  0  0  0  0  0  0  0
   16.7318    6.2342   -8.6068 H   0  0  0  0  0  0  0  0  0  0  0  0
   18.2692    4.3980   -8.2812 H   0  0  0  0  0  0  0  0  0  0  0  0
   15.3082    0.6294   -7.8796 H   0  0  0  0  0  0  0  0  0  0  0  0
   15.2573   -1.1028   -8.1944 H   0  0  0  0  0  0  0  0  0  0  0  0
   13.7710    0.4556   -6.0612 H   0  0  0  0  0  0  0  0  0  0  0  0
   12.1157   -0.7093   -6.8382 H   0  0  0  0  0  0  0  0  0  0  0  0
   14.0276   -2.5185   -5.6333 H   0  0  0  0  0  0  0  0  0  0  0  0
   14.1124   -1.1843   -4.4898 H   0  0  0  0  0  0  0  0  0  0  0  0
  1 35  1  0  0  0  0
  1 36  1  0  0  0  0
  1 37  1  0  0  0  0
  1  2  1  0  0  0  0
  2  3  2  0  0  0  0
  2  4  1  0  0  0  0
  4 38  1  0  0  0  0
  5  4  1  0  0  0  0
  5 39  1  0  0  0  0
  5  6  1  0  0  0  0
  5 10  1  0  0  0  0
  6  7  1  0  0  0  0
  6  8  1  0  0  0  0
  6  9  1  0  0  0  0
  7 40  1  0  0  0  0
  7 41  1  0  0  0  0
  7 42  1  0  0  0  0
  8 43  1  0  0  0  0
  8 44  1  0  0  0  0
  8 45  1  0  0  0  0
  9 46  1  0  0  0  0
  9 47  1  0  0  0  0
  9 48  1  0  0  0  0
 10 11  2  0  0  0  0
 10 12  1  0  0  0  0
 12 34  1  0  0  0  0
 13 12  1  0  0  0  0
 13 31  1  0  0  0  0
 13 49  1  0  0  0  0
 13 14  1  0  0  0  0
 14 15  2  0  0  0  0
 14 16  1  0  0  0  0
 16 50  1  0  0  0  0
 17 16  1  0  0  0  0
 17 51  1  0  0  0  0
 17 18  1  0  0  0  0
 17 19  1  0  0  0  0
 18 52  1  0  0  0  0
 18 53  1  0  0  0  0
 18 54  1  0  0  0  0
 19 20  1  0  0  0  0
 19 30  2  0  0  0  0
 20 55  1  0  0  0  0
 20 21  2  0  0  0  0
 21 56  1  0  0  0  0
 21 22  1  0  0  0  0
 22 29  2  0  0  0  0
 22 23  1  0  0  0  0
 23 24  2  0  0  0  0
 23 28  1  0  0  0  0
 24 25  1  0  0  0  0
 24 26  1  0  0  0  0
 25 57  1  0  0  0  0
 25 58  1  0  0  0  0
 25 59  1  0  0  0  0
 26 27  2  0  0  0  0
 27 60  1  0  0  0  0
 27 28  1  0  0  0  0
 29 61  1  0  0  0  0
 29 30  1  0  0  0  0
 30 62  1  0  0  0  0
 32 31  1  0  0  0  0
 31 63  1  0  0  0  0
 31 64  1  0  0  0  0
 32 34  1  0  0  0  0
 32 65  1  0  0  0  0
 32 33  1  0  0  0  0
 33 66  1  0  0  0  0
 34 67  1  0  0  0  0
 34 68  1  0  0  0  0
M  ZZC   1 c1
M  ZZC   2 c2
M  ZZC   3 o1
M  ZZC   4 n1
M  ZZC   5 c3
M  ZZC   6 c4
M  ZZC   7 c5
M  ZZC   8 c6
M  ZZC   9 c7
M  ZZC  10 c8
M  ZZC  11 o2
M  ZZC  12 n2
M  ZZC  13 c9
M  ZZC  14 c10
M  ZZC  15 o3
M  ZZC  16 n3
M  ZZC  17 c11
M  ZZC  18 c12
M  ZZC  19 c13
M  ZZC  20 c14
M  ZZC  21 c15
M  ZZC  22 c16
M  ZZC  23 c17
M  ZZC  24 c18
M  ZZC  25 c19
M  ZZC  26 n4
M  ZZC  27 c20
M  ZZC  28 s1
M  ZZC  29 c21
M  ZZC  30 c22
M  ZZC  31 c23
M  ZZC  32 c24
M  ZZC  33 o4
M  ZZC  34 c25
M  ZZC  35 h11
M  ZZC  36 h12
M  ZZC  37 h13
M  ZZC  38 h01
M  ZZC  39 h31
M  ZZC  40 h51
M  ZZC  41 h52
M  ZZC  42 h53
M  ZZC  43 h61
M  ZZC  44 h62
M  ZZC  45 h63
M  ZZC  46 h71
M  ZZC  47 h72
M  ZZC  48 h73
M  ZZC  49 h91
M  ZZC  50 h02
M  ZZC  51 h111
M  ZZC  52 h121
M  ZZC  53 h122
M  ZZC  54 h123
M  ZZC  55 h141
M  ZZC  56 h151
M  ZZC  57 h191
M  ZZC  58 h192
M  ZZC  59 h193
M  ZZC  60 h201
M  ZZC  61 h211
M  ZZC  62 h221
M  ZZC  63 h231
M  ZZC  64 h232
M  ZZC  65 h241
M  ZZC  66 h41
M  ZZC  67 h251
M  ZZC  68 h252
M  ZZM   1 1
M  ZZI   1 111
M  ZZM   2 3
M  ZZI   2 121
M  ZZM   3 7
M  ZZI   3 81
M  ZZM   4 10
M  ZZI   4 211
M  ZZM   5 1
M  ZZI   5 113
M  ZZM   6 1
M  ZZI   6 110
M  ZZM   7 1
M  ZZI   7 111
M  ZZM   8 1
M  ZZI   8 111
M  ZZM   9 1
M  ZZI   9 111
M  ZZM  10 3
M  ZZI  10 121
M  ZZM  11 7
M  ZZI  11 81
M  ZZM  12 10
M  ZZI  12 192
M  ZZM  13 1
M  ZZI  13 113
M  ZZM  14 3
M  ZZI  14 121
M  ZZM  15 7
M  ZZI  15 81
M  ZZM  16 10
M  ZZI  16 211
M  ZZM  17 1
M  ZZI  17 113
M  ZZM  18 1
M  ZZI  18 111
M  ZZM  19 37
M  ZZI  19 124
M  ZZM  20 37
M  ZZI  20 125
M  ZZM  21 37
M  ZZI  21 125
M  ZZM  22 37
M  ZZI  22 124
M  ZZM  23 63
M  ZZI  23 104
M  ZZM  24 64
M  ZZI  24 105
M  ZZM  25 1
M  ZZI  25 111
M  ZZM  26 66
M  ZZI  26 222
M  ZZM  27 63
M  ZZI  27 104
M  ZZM  28 44
M  ZZI  28 248
M  ZZM  29 37
M  ZZI  29 125
M  ZZM  30 37
M  ZZI  30 125
M  ZZM  31 1
M  ZZI  31 112
M  ZZM  32 1
M  ZZI  32 113
M  ZZM  33 6
M  ZZI  33 60
M  ZZM  34 1
M  ZZI  34 112
M  ZZM  35 5
M  ZZI  35 1
M  ZZM  36 5
M  ZZI  36 1
M  ZZM  37 5
M  ZZI  37 1
M  ZZM  38 28
M  ZZI  38 11
M  ZZM  39 5
M  ZZI  39 1
M  ZZM  40 5
M  ZZI  40 1
M  ZZM  41 5
M  ZZI  41 1
M  ZZM  42 5
M  ZZI  42 1
M  ZZM  43 5
M  ZZI  43 1
M  ZZM  44 5
M  ZZI  44 1
M  ZZM  45 5
M  ZZI  45 1
M  ZZM  46 5
M  ZZI  46 1
M  ZZM  47 5
M  ZZI  47 1
M  ZZM  48 5
M  ZZI  48 1
M  ZZM  49 5
M  ZZI  49 1
M  ZZM  50 28
M  ZZI  50 11
M  ZZM  51 5
M  ZZI  51 1
M  ZZM  52 5
M  ZZI  52 1
M  ZZM  53 5
M  ZZI  53 1
M  ZZM  54 5
M  ZZI  54 1
M  ZZM  55 5
M  ZZI  55 1
M  ZZM  56 5
M  ZZI  56 1
M  ZZM  57 5
M  ZZI  57 1
M  ZZM  58 5
M  ZZI  58 1
M  ZZM  59 5
M  ZZI  59 1
M  ZZM  60 5
M  ZZI  60 1
M  ZZM  61 5
M  ZZI  61 1
M  ZZM  62 5
M  ZZI  62 1
M  ZZM  63 5
M  ZZI  63 1
M  ZZM  64 5
M  ZZI  64 1
M  ZZM  65 5
M  ZZI  65 1
M  ZZM  66 21
M  ZZI  66 20
M  ZZM  67 5
M  ZZI  67 1
M  ZZM  68 5
M  ZZI  68 1
M  END
> <IX>
1

> <NAME>
VHL_4QNQ_15.pdb

> <Score>
-2.927303

> <Natom>
68

> <Nflex>
8

> <Hbond>
-5.017026

> <Hphob>
-6.755719

> <VwInt>
-28.216883

> <Dsolv>
22.685425

> <SolEl>
23.498733

> <Eintl>
8.642925

> <RecConf>
ND

> <projPath>
VHL_maps/

> <NAME_>
VHL_4QNQ_15.pdb

$$$$
