VHL_2GQG_21.pdb
  MOLSOFT 04032206383D

 65 67  0  0  1  0  0  0  0  0999 V2000
   18.0993   -6.7257   -5.1219 C   0  0  0  0  0  0  0  0  0  0  0  0
   16.8975   -5.8306   -4.9917 C   0  0  0  0  0  0  0  0  0  0  0  0
   15.8114   -6.1754   -5.4242 O   0  0  0  0  0  0  0  0  0  0  0  0
   17.1520   -4.6501   -4.3219 N   0  0  0  0  0  0  0  0  0  0  0  0
   16.1576   -3.5944   -4.0696 C   0  0  1  0  0  0  0  0  0  0  0  0
   15.8579   -3.4320   -2.5502 C   0  0  0  0  0  0  0  0  0  0  0  0
   17.0926   -2.9829   -1.7555 C   0  0  0  0  0  0  0  0  0  0  0  0
   15.3709   -4.7821   -2.0076 C   0  0  0  0  0  0  0  0  0  0  0  0
   14.7410   -2.4162   -2.2826 C   0  0  0  0  0  0  0  0  0  0  0  0
   16.7203   -2.3521   -4.7909 C   0  0  0  0  0  0  0  0  0  0  0  0
   17.9232   -2.1193   -4.7872 O   0  0  0  0  0  0  0  0  0  0  0  0
   15.8300   -1.5274   -5.4847 N   0  0  0  0  0  0  0  0  0  0  0  0
   16.3224   -0.5827   -6.4759 C   0  0  2  0  0  0  0  0  0  0  0  0
   16.7228    0.7663   -5.8720 C   0  0  0  0  0  0  0  0  0  0  0  0
   16.1918    1.2339   -4.8737 O   0  0  0  0  0  0  0  0  0  0  0  0
   17.6858    1.4269   -6.6134 N   0  0  0  0  0  0  0  0  0  0  0  0
   18.1489    2.7604   -6.2653 C   0  0  0  0  0  0  0  0  0  0  0  0
   19.6013    3.0482   -6.5758 C   0  0  0  0  0  0  0  0  0  0  0  0
   20.4554    2.1330   -7.1827 C   0  0  0  0  0  0  0  0  0  0  0  0
   21.7803    2.4433   -7.4192 C   0  0  0  0  0  0  0  0  0  0  0  0
   22.3189    3.6651   -7.0447 C   0  0  0  0  0  0  0  0  0  0  0  0
   23.7416    3.9277   -7.2350 C   0  0  0  0  0  0  0  0  0  0  0  0
   24.5375    3.8723   -8.3739 C   0  0  0  0  0  0  0  0  0  0  0  0
   24.1058    3.5893   -9.7607 C   0  0  0  0  0  0  0  0  0  0  0  0
   25.8811    4.1036   -8.1614 N   0  0  0  0  0  0  0  0  0  0  0  0
   26.0946    4.3495   -6.8892 C   0  0  0  0  0  0  0  0  0  0  0  0
   24.7209    4.3291   -5.8765 S   0  0  0  0  0  0  0  0  0  0  0  0
   21.4690    4.5919   -6.4523 C   0  0  0  0  0  0  0  0  0  0  0  0
   20.1345    4.2874   -6.2293 C   0  0  0  0  0  0  0  0  0  0  0  0
   15.1565   -0.4290   -7.4384 C   0  0  0  0  0  0  0  0  0  0  0  0
   13.9345   -0.5597   -6.5444 C   0  0  1  0  0  0  0  0  0  0  0  0
   12.8380   -1.1009   -7.2766 O   0  0  0  0  0  0  0  0  0  0  0  0
   14.3779   -1.5141   -5.4440 C   0  0  0  0  0  0  0  0  0  0  0  0
   19.0200   -6.1407   -5.2083 H   0  0  0  0  0  0  0  0  0  0  0  0
   17.9976   -7.3431   -6.0194 H   0  0  0  0  0  0  0  0  0  0  0  0
   18.1557   -7.3744   -4.2444 H   0  0  0  0  0  0  0  0  0  0  0  0
   18.1121   -4.4583   -4.0583 H   0  0  0  0  0  0  0  0  0  0  0  0
   15.2358   -3.9012   -4.5617 H   0  0  0  0  0  0  0  0  0  0  0  0
   16.8768   -2.9227   -0.6838 H   0  0  0  0  0  0  0  0  0  0  0  0
   17.4425   -1.9951   -2.0707 H   0  0  0  0  0  0  0  0  0  0  0  0
   17.9231   -3.6769   -1.8729 H   0  0  0  0  0  0  0  0  0  0  0  0
   15.0895   -4.7038   -0.9550 H   0  0  0  0  0  0  0  0  0  0  0  0
   16.1391   -5.5538   -2.0869 H   0  0  0  0  0  0  0  0  0  0  0  0
   14.4933   -5.1420   -2.5542 H   0  0  0  0  0  0  0  0  0  0  0  0
   15.0401   -1.4058   -2.5806 H   0  0  0  0  0  0  0  0  0  0  0  0
   14.4891   -2.3710   -1.2186 H   0  0  0  0  0  0  0  0  0  0  0  0
   13.8367   -2.6512   -2.8506 H   0  0  0  0  0  0  0  0  0  0  0  0
   17.1922   -1.0076   -6.9844 H   0  0  0  0  0  0  0  0  0  0  0  0
   18.0403    0.9829   -7.4540 H   0  0  0  0  0  0  0  0  0  0  0  0
   17.5173    3.4599   -6.8235 H   0  0  0  0  0  0  0  0  0  0  0  0
   17.9713    2.9252   -5.1972 H   0  0  0  0  0  0  0  0  0  0  0  0
   20.1149    1.1449   -7.4659 H   0  0  0  0  0  0  0  0  0  0  0  0
   22.4040    1.6897   -7.8824 H   0  0  0  0  0  0  0  0  0  0  0  0
   24.0276    2.5122   -9.9243 H   0  0  0  0  0  0  0  0  0  0  0  0
   24.8266    3.9840  -10.4823 H   0  0  0  0  0  0  0  0  0  0  0  0
   23.1379    4.0495   -9.9762 H   0  0  0  0  0  0  0  0  0  0  0  0
   27.0817    4.5535   -6.4991 H   0  0  0  0  0  0  0  0  0  0  0  0
   21.8419    5.5661   -6.1501 H   0  0  0  0  0  0  0  0  0  0  0  0
   19.5036    5.0340   -5.7553 H   0  0  0  0  0  0  0  0  0  0  0  0
   15.1615    0.5175   -7.9891 H   0  0  0  0  0  0  0  0  0  0  0  0
   15.1683   -1.2337   -8.1829 H   0  0  0  0  0  0  0  0  0  0  0  0
   13.6470    0.4170   -6.1376 H   0  0  0  0  0  0  0  0  0  0  0  0
   12.0163   -0.8445   -6.8214 H   0  0  0  0  0  0  0  0  0  0  0  0
   13.9726   -2.5208   -5.5483 H   0  0  0  0  0  0  0  0  0  0  0  0
   14.0516   -1.1228   -4.4801 H   0  0  0  0  0  0  0  0  0  0  0  0
  1 34  1  0  0  0  0
  1 35  1  0  0  0  0
  1 36  1  0  0  0  0
  1  2  1  0  0  0  0
  2  3  2  0  0  0  0
  2  4  1  0  0  0  0
  4 37  1  0  0  0  0
  5  4  1  0  0  0  0
  5 38  1  0  0  0  0
  5  6  1  0  0  0  0
  5 10  1  0  0  0  0
  6  7  1  0  0  0  0
  6  8  1  0  0  0  0
  6  9  1  0  0  0  0
  7 39  1  0  0  0  0
  7 40  1  0  0  0  0
  7 41  1  0  0  0  0
  8 42  1  0  0  0  0
  8 43  1  0  0  0  0
  8 44  1  0  0  0  0
  9 45  1  0  0  0  0
  9 46  1  0  0  0  0
  9 47  1  0  0  0  0
 10 11  2  0  0  0  0
 10 12  1  0  0  0  0
 12 33  1  0  0  0  0
 13 12  1  0  0  0  0
 13 30  1  0  0  0  0
 13 48  1  0  0  0  0
 13 14  1  0  0  0  0
 14 15  2  0  0  0  0
 14 16  1  0  0  0  0
 16 49  1  0  0  0  0
 16 17  1  0  0  0  0
 17 50  1  0  0  0  0
 17 51  1  0  0  0  0
 17 18  1  0  0  0  0
 18 19  1  0  0  0  0
 18 29  2  0  0  0  0
 19 52  1  0  0  0  0
 19 20  2  0  0  0  0
 20 53  1  0  0  0  0
 20 21  1  0  0  0  0
 21 28  2  0  0  0  0
 21 22  1  0  0  0  0
 22 23  2  0  0  0  0
 22 27  1  0  0  0  0
 23 24  1  0  0  0  0
 23 25  1  0  0  0  0
 24 54  1  0  0  0  0
 24 55  1  0  0  0  0
 24 56  1  0  0  0  0
 25 26  2  0  0  0  0
 26 57  1  0  0  0  0
 26 27  1  0  0  0  0
 28 58  1  0  0  0  0
 28 29  1  0  0  0  0
 29 59  1  0  0  0  0
 31 30  1  0  0  0  0
 30 60  1  0  0  0  0
 30 61  1  0  0  0  0
 31 33  1  0  0  0  0
 31 62  1  0  0  0  0
 31 32  1  0  0  0  0
 32 63  1  0  0  0  0
 33 64  1  0  0  0  0
 33 65  1  0  0  0  0
M  ZZC   1 c1
M  ZZC   2 c2
M  ZZC   3 o1
M  ZZC   4 n1
M  ZZC   5 c3
M  ZZC   6 c4
M  ZZC   7 c5
M  ZZC   8 c6
M  ZZC   9 c7
M  ZZC  10 c8
M  ZZC  11 o2
M  ZZC  12 n2
M  ZZC  13 c9
M  ZZC  14 c10
M  ZZC  15 o3
M  ZZC  16 n3
M  ZZC  17 c11
M  ZZC  18 c12
M  ZZC  19 c13
M  ZZC  20 c14
M  ZZC  21 c15
M  ZZC  22 c16
M  ZZC  23 c17
M  ZZC  24 c18
M  ZZC  25 n4
M  ZZC  26 c19
M  ZZC  27 s1
M  ZZC  28 c20
M  ZZC  29 c21
M  ZZC  30 c22
M  ZZC  31 c23
M  ZZC  32 o4
M  ZZC  33 c24
M  ZZC  34 h11
M  ZZC  35 h12
M  ZZC  36 h13
M  ZZC  37 h01
M  ZZC  38 h31
M  ZZC  39 h51
M  ZZC  40 h52
M  ZZC  41 h53
M  ZZC  42 h61
M  ZZC  43 h62
M  ZZC  44 h63
M  ZZC  45 h71
M  ZZC  46 h72
M  ZZC  47 h73
M  ZZC  48 h91
M  ZZC  49 h02
M  ZZC  50 h111
M  ZZC  51 h112
M  ZZC  52 h131
M  ZZC  53 h141
M  ZZC  54 h181
M  ZZC  55 h182
M  ZZC  56 h183
M  ZZC  57 h191
M  ZZC  58 h201
M  ZZC  59 h211
M  ZZC  60 h221
M  ZZC  61 h222
M  ZZC  62 h231
M  ZZC  63 h41
M  ZZC  64 h241
M  ZZC  65 h242
M  ZZM   1 1
M  ZZI   1 111
M  ZZM   2 3
M  ZZI   2 121
M  ZZM   3 7
M  ZZI   3 81
M  ZZM   4 10
M  ZZI   4 211
M  ZZM   5 1
M  ZZI   5 113
M  ZZM   6 1
M  ZZI   6 110
M  ZZM   7 1
M  ZZI   7 111
M  ZZM   8 1
M  ZZI   8 111
M  ZZM   9 1
M  ZZI   9 111
M  ZZM  10 3
M  ZZI  10 121
M  ZZM  11 7
M  ZZI  11 81
M  ZZM  12 10
M  ZZI  12 192
M  ZZM  13 1
M  ZZI  13 113
M  ZZM  14 3
M  ZZI  14 121
M  ZZM  15 7
M  ZZI  15 81
M  ZZM  16 10
M  ZZI  16 211
M  ZZM  17 1
M  ZZI  17 112
M  ZZM  18 37
M  ZZI  18 124
M  ZZM  19 37
M  ZZI  19 125
M  ZZM  20 37
M  ZZI  20 125
M  ZZM  21 37
M  ZZI  21 124
M  ZZM  22 63
M  ZZI  22 104
M  ZZM  23 64
M  ZZI  23 105
M  ZZM  24 1
M  ZZI  24 111
M  ZZM  25 66
M  ZZI  25 222
M  ZZM  26 63
M  ZZI  26 104
M  ZZM  27 44
M  ZZI  27 248
M  ZZM  28 37
M  ZZI  28 125
M  ZZM  29 37
M  ZZI  29 125
M  ZZM  30 1
M  ZZI  30 112
M  ZZM  31 1
M  ZZI  31 113
M  ZZM  32 6
M  ZZI  32 60
M  ZZM  33 1
M  ZZI  33 112
M  ZZM  34 5
M  ZZI  34 1
M  ZZM  35 5
M  ZZI  35 1
M  ZZM  36 5
M  ZZI  36 1
M  ZZM  37 28
M  ZZI  37 11
M  ZZM  38 5
M  ZZI  38 1
M  ZZM  39 5
M  ZZI  39 1
M  ZZM  40 5
M  ZZI  40 1
M  ZZM  41 5
M  ZZI  41 1
M  ZZM  42 5
M  ZZI  42 1
M  ZZM  43 5
M  ZZI  43 1
M  ZZM  44 5
M  ZZI  44 1
M  ZZM  45 5
M  ZZI  45 1
M  ZZM  46 5
M  ZZI  46 1
M  ZZM  47 5
M  ZZI  47 1
M  ZZM  48 5
M  ZZI  48 1
M  ZZM  49 28
M  ZZI  49 11
M  ZZM  50 5
M  ZZI  50 1
M  ZZM  51 5
M  ZZI  51 1
M  ZZM  52 5
M  ZZI  52 1
M  ZZM  53 5
M  ZZI  53 1
M  ZZM  54 5
M  ZZI  54 1
M  ZZM  55 5
M  ZZI  55 1
M  ZZM  56 5
M  ZZI  56 1
M  ZZM  57 5
M  ZZI  57 1
M  ZZM  58 5
M  ZZI  58 1
M  ZZM  59 5
M  ZZI  59 1
M  ZZM  60 5
M  ZZI  60 1
M  ZZM  61 5
M  ZZI  61 1
M  ZZM  62 5
M  ZZI  62 1
M  ZZM  63 21
M  ZZI  63 20
M  ZZM  64 5
M  ZZI  64 1
M  ZZM  65 5
M  ZZI  65 1
M  END
> <IX>
1

> <NAME>
VHL_2GQG_21.pdb

> <Score>
-12.600336

> <Natom>
65

> <Nflex>
8

> <Hbond>
-5.062865

> <Hphob>
-6.384893

> <VwInt>
-28.604018

> <Dsolv>
16.799981

> <SolEl>
15.53264

> <Eintl>
9.065134

> <RecConf>
ND

> <projPath>
VHL_maps/

> <NAME_>
VHL_2GQG_21.pdb

$$$$
