VHL_5EU1_16.pdb
  MOLSOFT 04032206413D

 71 74  0  0  1  0  0  0  0  0999 V2000
   13.7477    1.6899   -4.6576 O   0  0  0  0  0  0  0  0  0  0  0  0
   14.7238    1.7843   -5.3898 C   0  0  0  0  0  0  0  0  0  0  0  0
   15.4582    3.1241   -5.5922 C   0  0  1  0  0  0  0  0  0  0  0  0
   14.5951    3.9553   -6.4285 N   0  0  0  0  0  0  0  0  0  0  0  0
   14.9564    4.3941   -7.6878 C   0  0  0  0  0  0  0  0  0  0  0  0
   16.0268    4.1916   -8.2461 O   0  0  0  0  0  0  0  0  0  0  0  0
   13.8738    5.1162   -8.3840 C   0  0  0  0  0  0  0  0  0  0  0  0
   12.9343    4.2464   -9.0156 C   0  0  0  0  0  0  0  0  0  0  0  0
   12.1477    3.5414   -9.4932 N   0  0  0  0  0  0  0  0  0  0  0  0
   14.1737    6.4392   -9.0600 C   0  0  0  0  0  0  0  0  0  0  0  0
   13.3645    6.4250   -7.8057 C   0  0  0  0  0  0  0  0  0  0  0  0
   15.8487    3.8333   -4.2610 C   0  0  0  0  0  0  0  0  0  0  0  0
   14.6365    4.3261   -3.4453 C   0  0  0  0  0  0  0  0  0  0  0  0
   16.6773    2.8771   -3.3874 C   0  0  0  0  0  0  0  0  0  0  0  0
   16.7239    5.0561   -4.5851 C   0  0  0  0  0  0  0  0  0  0  0  0
   15.1814    0.6914   -6.1239 N   0  0  0  0  0  0  0  0  0  0  0  0
   14.6131   -0.6397   -5.9454 C   0  0  2  0  0  0  0  0  0  0  0  0
   15.2802   -1.3655   -4.7705 C   0  0  0  0  0  0  0  0  0  0  0  0
   16.3747   -1.0455   -4.3254 O   0  0  0  0  0  0  0  0  0  0  0  0
   14.5548   -2.4460   -4.2991 N   0  0  0  0  0  0  0  0  0  0  0  0
   15.0376   -3.2609   -3.1997 C   0  0  0  0  0  0  0  0  0  0  0  0
   14.7868   -2.6428   -1.8449 C   0  0  0  0  0  0  0  0  0  0  0  0
   15.6034   -2.9490   -0.7628 C   0  0  0  0  0  0  0  0  0  0  0  0
   16.6706   -3.8065   -0.9625 O   0  0  0  0  0  0  0  0  0  0  0  0
   15.3792   -2.4188    0.5001 C   0  0  0  0  0  0  0  0  0  0  0  0
   14.3107   -1.5546    0.7177 C   0  0  0  0  0  0  0  0  0  0  0  0
   14.0565   -0.9968    2.0418 C   0  0  0  0  0  0  0  0  0  0  0  0
   13.9656   -1.6099    3.2869 C   0  0  0  0  0  0  0  0  0  0  0  0
   14.0952   -3.0536    3.5908 C   0  0  0  0  0  0  0  0  0  0  0  0
   13.7140   -0.7579    4.3433 N   0  0  0  0  0  0  0  0  0  0  0  0
   13.6111    0.4755    3.9032 C   0  0  0  0  0  0  0  0  0  0  0  0
   13.8263    0.7006    2.2250 S   0  0  0  0  0  0  0  0  0  0  0  0
   13.4826   -1.2502   -0.3590 C   0  0  0  0  0  0  0  0  0  0  0  0
   13.7121   -1.7881   -1.6127 C   0  0  0  0  0  0  0  0  0  0  0  0
   14.9282   -1.3417   -7.2533 C   0  0  0  0  0  0  0  0  0  0  0  0
   16.2634   -0.7514   -7.6455 C   0  0  1  0  0  0  0  0  0  0  0  0
   16.5010   -0.8814   -9.0471 O   0  0  0  0  0  0  0  0  0  0  0  0
   16.1594    0.6985   -7.1988 C   0  0  0  0  0  0  0  0  0  0  0  0
   16.3795    2.9433   -6.1504 H   0  0  0  0  0  0  0  0  0  0  0  0
   13.6602    4.1665   -6.0870 H   0  0  0  0  0  0  0  0  0  0  0  0
   15.1819    6.8336   -9.0082 H   0  0  0  0  0  0  0  0  0  0  0  0
   13.6510    6.6904   -9.9740 H   0  0  0  0  0  0  0  0  0  0  0  0
   12.3103    6.6609   -7.8875 H   0  0  0  0  0  0  0  0  0  0  0  0
   13.8261    6.8177   -6.9074 H   0  0  0  0  0  0  0  0  0  0  0  0
   14.9595    4.8644   -2.5483 H   0  0  0  0  0  0  0  0  0  0  0  0
   14.0019    3.5065   -3.1002 H   0  0  0  0  0  0  0  0  0  0  0  0
   14.0077    5.0155   -4.0167 H   0  0  0  0  0  0  0  0  0  0  0  0
   16.0909    2.0159   -3.0525 H   0  0  0  0  0  0  0  0  0  0  0  0
   17.0491    3.3786   -2.4879 H   0  0  0  0  0  0  0  0  0  0  0  0
   17.5479    2.4929   -3.9297 H   0  0  0  0  0  0  0  0  0  0  0  0
   17.0764    5.5496   -3.6735 H   0  0  0  0  0  0  0  0  0  0  0  0
   16.1770    5.8065   -5.1648 H   0  0  0  0  0  0  0  0  0  0  0  0
   17.6097    4.7737   -5.1635 H   0  0  0  0  0  0  0  0  0  0  0  0
   13.5334   -0.5781   -5.7630 H   0  0  0  0  0  0  0  0  0  0  0  0
   13.6560   -2.6798   -4.7051 H   0  0  0  0  0  0  0  0  0  0  0  0
   14.5290   -4.2287   -3.2590 H   0  0  0  0  0  0  0  0  0  0  0  0
   16.1081   -3.4278   -3.3616 H   0  0  0  0  0  0  0  0  0  0  0  0
   17.1774   -3.8575   -0.1340 H   0  0  0  0  0  0  0  0  0  0  0  0
   16.0469   -2.6727    1.3168 H   0  0  0  0  0  0  0  0  0  0  0  0
   13.6821   -3.2848    4.5770 H   0  0  0  0  0  0  0  0  0  0  0  0
   15.1454   -3.3586    3.5861 H   0  0  0  0  0  0  0  0  0  0  0  0
   13.5532   -3.6595    2.8609 H   0  0  0  0  0  0  0  0  0  0  0  0
   13.4030    1.3076    4.5602 H   0  0  0  0  0  0  0  0  0  0  0  0
   12.6263   -0.5952   -0.2291 H   0  0  0  0  0  0  0  0  0  0  0  0
   13.0342   -1.5241   -2.4162 H   0  0  0  0  0  0  0  0  0  0  0  0
   14.9787   -2.4315   -7.1823 H   0  0  0  0  0  0  0  0  0  0  0  0
   14.1732   -1.0904   -7.9996 H   0  0  0  0  0  0  0  0  0  0  0  0
   17.0603   -1.2607   -7.0968 H   0  0  0  0  0  0  0  0  0  0  0  0
   17.4369   -0.6318   -9.1614 H   0  0  0  0  0  0  0  0  0  0  0  0
   15.8104    1.3578   -8.0007 H   0  0  0  0  0  0  0  0  0  0  0  0
   17.1233    1.0723   -6.8398 H   0  0  0  0  0  0  0  0  0  0  0  0
  1  2  2  0  0  0  0
  3  2  1  0  0  0  0
  2 16  1  0  0  0  0
  3  4  1  0  0  0  0
  3 39  1  0  0  0  0
  3 12  1  0  0  0  0
  4  5  1  0  0  0  0
  4 40  1  0  0  0  0
  5  7  1  0  0  0  0
  5  6  2  0  0  0  0
  7  8  1  0  0  0  0
  7 10  1  0  0  0  0
  7 11  1  0  0  0  0
  8  9  3  0  0  0  0
 10 41  1  0  0  0  0
 10 42  1  0  0  0  0
 10 11  1  0  0  0  0
 11 43  1  0  0  0  0
 11 44  1  0  0  0  0
 12 14  1  0  0  0  0
 12 15  1  0  0  0  0
 12 13  1  0  0  0  0
 13 45  1  0  0  0  0
 13 46  1  0  0  0  0
 13 47  1  0  0  0  0
 14 48  1  0  0  0  0
 14 49  1  0  0  0  0
 14 50  1  0  0  0  0
 15 51  1  0  0  0  0
 15 52  1  0  0  0  0
 15 53  1  0  0  0  0
 17 16  1  0  0  0  0
 16 38  1  0  0  0  0
 17 54  1  0  0  0  0
 17 35  1  0  0  0  0
 17 18  1  0  0  0  0
 18 19  2  0  0  0  0
 18 20  1  0  0  0  0
 20 55  1  0  0  0  0
 20 21  1  0  0  0  0
 21 56  1  0  0  0  0
 21 57  1  0  0  0  0
 21 22  1  0  0  0  0
 22 23  2  0  0  0  0
 22 34  1  0  0  0  0
 23 24  1  0  0  0  0
 23 25  1  0  0  0  0
 24 58  1  0  0  0  0
 25 59  1  0  0  0  0
 25 26  2  0  0  0  0
 26 33  1  0  0  0  0
 26 27  1  0  0  0  0
 27 28  2  0  0  0  0
 27 32  1  0  0  0  0
 28 29  1  0  0  0  0
 28 30  1  0  0  0  0
 29 60  1  0  0  0  0
 29 61  1  0  0  0  0
 29 62  1  0  0  0  0
 30 31  2  0  0  0  0
 31 63  1  0  0  0  0
 31 32  1  0  0  0  0
 33 64  1  0  0  0  0
 33 34  2  0  0  0  0
 34 65  1  0  0  0  0
 35 66  1  0  0  0  0
 35 67  1  0  0  0  0
 36 35  1  0  0  0  0
 36 68  1  0  0  0  0
 36 38  1  0  0  0  0
 36 37  1  0  0  0  0
 37 69  1  0  0  0  0
 38 70  1  0  0  0  0
 38 71  1  0  0  0  0
M  ZZC   1 o1
M  ZZC   2 c1
M  ZZC   3 c2
M  ZZC   4 n1
M  ZZC   5 c3
M  ZZC   6 o2
M  ZZC   7 c4
M  ZZC   8 c5
M  ZZC   9 n2
M  ZZC  10 c6
M  ZZC  11 c7
M  ZZC  12 c8
M  ZZC  13 c9
M  ZZC  14 c10
M  ZZC  15 c11
M  ZZC  16 n3
M  ZZC  17 c12
M  ZZC  18 c13
M  ZZC  19 o3
M  ZZC  20 n4
M  ZZC  21 c14
M  ZZC  22 c15
M  ZZC  23 c16
M  ZZC  24 o4
M  ZZC  25 c17
M  ZZC  26 c18
M  ZZC  27 c19
M  ZZC  28 c20
M  ZZC  29 c21
M  ZZC  30 n5
M  ZZC  31 c22
M  ZZC  32 s1
M  ZZC  33 c23
M  ZZC  34 c24
M  ZZC  35 c25
M  ZZC  36 c26
M  ZZC  37 o5
M  ZZC  38 c27
M  ZZC  39 h21
M  ZZC  40 h11
M  ZZC  41 h61
M  ZZC  42 h62
M  ZZC  43 h71
M  ZZC  44 h72
M  ZZC  45 h91
M  ZZC  46 h92
M  ZZC  47 h93
M  ZZC  48 h101
M  ZZC  49 h102
M  ZZC  50 h103
M  ZZC  51 h111
M  ZZC  52 h112
M  ZZC  53 h113
M  ZZC  54 h121
M  ZZC  55 h41
M  ZZC  56 h141
M  ZZC  57 h142
M  ZZC  58 h01
M  ZZC  59 h171
M  ZZC  60 h211
M  ZZC  61 h212
M  ZZC  62 h213
M  ZZC  63 h221
M  ZZC  64 h231
M  ZZC  65 h241
M  ZZC  66 h251
M  ZZC  67 h252
M  ZZC  68 h261
M  ZZC  69 h51
M  ZZC  70 h271
M  ZZC  71 h272
M  ZZM   1 7
M  ZZI   1 81
M  ZZM   2 3
M  ZZI   2 121
M  ZZM   3 1
M  ZZI   3 113
M  ZZM   4 10
M  ZZI   4 211
M  ZZM   5 3
M  ZZI   5 121
M  ZZM   6 7
M  ZZI   6 81
M  ZZM   7 22
M  ZZI   7 109
M  ZZM   8 4
M  ZZI   8 130
M  ZZM   9 42
M  ZZI   9 225
M  ZZM  10 22
M  ZZI  10 109
M  ZZM  11 22
M  ZZI  11 109
M  ZZM  12 1
M  ZZI  12 110
M  ZZM  13 1
M  ZZI  13 111
M  ZZM  14 1
M  ZZI  14 111
M  ZZM  15 1
M  ZZI  15 111
M  ZZM  16 10
M  ZZI  16 192
M  ZZM  17 1
M  ZZI  17 113
M  ZZM  18 3
M  ZZI  18 121
M  ZZM  19 7
M  ZZI  19 81
M  ZZM  20 10
M  ZZI  20 211
M  ZZM  21 1
M  ZZI  21 112
M  ZZM  22 37
M  ZZI  22 124
M  ZZM  23 37
M  ZZI  23 124
M  ZZM  24 6
M  ZZI  24 62
M  ZZM  25 37
M  ZZI  25 125
M  ZZM  26 37
M  ZZI  26 124
M  ZZM  27 63
M  ZZI  27 104
M  ZZM  28 64
M  ZZI  28 105
M  ZZM  29 1
M  ZZI  29 111
M  ZZM  30 66
M  ZZI  30 222
M  ZZM  31 63
M  ZZI  31 104
M  ZZM  32 44
M  ZZI  32 248
M  ZZM  33 37
M  ZZI  33 125
M  ZZM  34 37
M  ZZI  34 125
M  ZZM  35 1
M  ZZI  35 112
M  ZZM  36 1
M  ZZI  36 113
M  ZZM  37 6
M  ZZI  37 60
M  ZZM  38 1
M  ZZI  38 112
M  ZZM  39 5
M  ZZI  39 1
M  ZZM  40 28
M  ZZI  40 11
M  ZZM  41 5
M  ZZI  41 1
M  ZZM  42 5
M  ZZI  42 1
M  ZZM  43 5
M  ZZI  43 1
M  ZZM  44 5
M  ZZI  44 1
M  ZZM  45 5
M  ZZI  45 1
M  ZZM  46 5
M  ZZI  46 1
M  ZZM  47 5
M  ZZI  47 1
M  ZZM  48 5
M  ZZI  48 1
M  ZZM  49 5
M  ZZI  49 1
M  ZZM  50 5
M  ZZI  50 1
M  ZZM  51 5
M  ZZI  51 1
M  ZZM  52 5
M  ZZI  52 1
M  ZZM  53 5
M  ZZI  53 1
M  ZZM  54 5
M  ZZI  54 1
M  ZZM  55 28
M  ZZI  55 11
M  ZZM  56 5
M  ZZI  56 1
M  ZZM  57 5
M  ZZI  57 1
M  ZZM  58 29
M  ZZI  58 27
M  ZZM  59 5
M  ZZI  59 1
M  ZZM  60 5
M  ZZI  60 1
M  ZZM  61 5
M  ZZI  61 1
M  ZZM  62 5
M  ZZI  62 1
M  ZZM  63 5
M  ZZI  63 1
M  ZZM  64 5
M  ZZI  64 1
M  ZZM  65 5
M  ZZI  65 1
M  ZZM  66 5
M  ZZI  66 1
M  ZZM  67 5
M  ZZI  67 1
M  ZZM  68 5
M  ZZI  68 1
M  ZZM  69 21
M  ZZI  69 20
M  ZZM  70 5
M  ZZI  70 1
M  ZZM  71 5
M  ZZI  71 1
M  END
> <IX>
1

> <NAME>
VHL_5EU1_16.pdb

> <Score>
-16.141829

> <Natom>
71

> <Nflex>
10

> <Hbond>
-7.702126

> <Hphob>
-5.527953

> <VwInt>
-28.683583

> <Dsolv>
23.350333

> <SolEl>
12.963294

> <Eintl>
6.105562

> <RecConf>
ND

> <projPath>
VHL_maps/

> <NAME_>
VHL_5EU1_16.pdb

$$$$
