VHL_4CI3_19.pdb
  MOLSOFT 04032206383D

 65 67  0  0  1  0  0  0  0  0999 V2000
   16.1075   -6.3768   -5.6670 O   0  0  0  0  0  0  0  0  0  0  0  0
   17.2104   -6.0106   -5.2938 C   0  0  0  0  0  0  0  0  0  0  0  0
   17.4973   -4.7613   -4.7750 N   0  0  0  0  0  0  0  0  0  0  0  0
   16.5196   -3.6741   -4.6579 C   0  0  1  0  0  0  0  0  0  0  0  0
   15.8953   -3.5505   -3.2300 C   0  0  0  0  0  0  0  0  0  0  0  0
   15.4176   -4.9193   -2.7202 C   0  0  0  0  0  0  0  0  0  0  0  0
   16.8948   -2.9902   -2.2058 C   0  0  0  0  0  0  0  0  0  0  0  0
   14.6681   -2.6255   -3.2626 C   0  0  0  0  0  0  0  0  0  0  0  0
   17.2107   -2.3793   -5.1284 C   0  0  0  0  0  0  0  0  0  0  0  0
   18.3610   -2.1226   -4.8040 O   0  0  0  0  0  0  0  0  0  0  0  0
   16.4686   -1.4653   -5.8776 N   0  0  0  0  0  0  0  0  0  0  0  0
   17.0271   -0.1647   -6.2278 C   0  0  2  0  0  0  0  0  0  0  0  0
   17.2032    0.8044   -5.0664 C   0  0  0  0  0  0  0  0  0  0  0  0
   16.5479    0.7540   -4.0344 O   0  0  0  0  0  0  0  0  0  0  0  0
   18.1059    1.8051   -5.3727 N   0  0  0  0  0  0  0  0  0  0  0  0
   18.2170    3.0099   -4.5847 C   0  0  0  0  0  0  0  0  0  0  0  0
   17.2773    4.0601   -5.1186 C   0  0  0  0  0  0  0  0  0  0  0  0
   17.5740    4.7489   -6.2916 C   0  0  0  0  0  0  0  0  0  0  0  0
   16.6973    5.6928   -6.7991 C   0  0  0  0  0  0  0  0  0  0  0  0
   15.5033    5.9756   -6.1447 C   0  0  0  0  0  0  0  0  0  0  0  0
   14.6183    7.0153   -6.6476 C   0  0  0  0  0  0  0  0  0  0  0  0
   13.9326    7.1307   -7.8503 C   0  0  0  0  0  0  0  0  0  0  0  0
   13.8917    6.1418   -8.9511 C   0  0  0  0  0  0  0  0  0  0  0  0
   13.2254    8.3064   -8.0062 N   0  0  0  0  0  0  0  0  0  0  0  0
   13.3748    9.0527   -6.9350 C   0  0  0  0  0  0  0  0  0  0  0  0
   14.3276    8.4058   -5.6806 S   0  0  0  0  0  0  0  0  0  0  0  0
   15.1929    5.2688   -4.9872 C   0  0  0  0  0  0  0  0  0  0  0  0
   16.0670    4.3206   -4.4836 C   0  0  0  0  0  0  0  0  0  0  0  0
   16.0367    0.4485   -7.2118 C   0  0  0  0  0  0  0  0  0  0  0  0
   15.3736   -0.7551   -7.8393 C   0  0  1  0  0  0  0  0  0  0  0  0
   16.1728   -1.2335   -8.9304 O   0  0  0  0  0  0  0  0  0  0  0  0
   15.3228   -1.7742   -6.7091 C   0  0  0  0  0  0  0  0  0  0  0  0
   18.3983   -6.9309   -5.3551 C   0  0  0  0  0  0  0  0  0  0  0  0
   18.4462   -4.5724   -4.4771 H   0  0  0  0  0  0  0  0  0  0  0  0
   15.7321   -3.9140   -5.3586 H   0  0  0  0  0  0  0  0  0  0  0  0
   14.6906   -5.3643   -3.4024 H   0  0  0  0  0  0  0  0  0  0  0  0
   14.9311   -4.8370   -1.7433 H   0  0  0  0  0  0  0  0  0  0  0  0
   16.2433   -5.6261   -2.6020 H   0  0  0  0  0  0  0  0  0  0  0  0
   17.1733   -1.9552   -2.4253 H   0  0  0  0  0  0  0  0  0  0  0  0
   17.8132   -3.5795   -2.1772 H   0  0  0  0  0  0  0  0  0  0  0  0
   16.4751   -2.9971   -1.1945 H   0  0  0  0  0  0  0  0  0  0  0  0
   13.9186   -2.9811   -3.9767 H   0  0  0  0  0  0  0  0  0  0  0  0
   14.9321   -1.6015   -3.5391 H   0  0  0  0  0  0  0  0  0  0  0  0
   14.1811   -2.5718   -2.2834 H   0  0  0  0  0  0  0  0  0  0  0  0
   17.9994   -0.3325   -6.6930 H   0  0  0  0  0  0  0  0  0  0  0  0
   18.6398    1.7542   -6.2339 H   0  0  0  0  0  0  0  0  0  0  0  0
   18.0037    2.7866   -3.5337 H   0  0  0  0  0  0  0  0  0  0  0  0
   19.2537    3.3576   -4.6447 H   0  0  0  0  0  0  0  0  0  0  0  0
   18.5026    4.5550   -6.8207 H   0  0  0  0  0  0  0  0  0  0  0  0
   16.9668    6.2283   -7.7053 H   0  0  0  0  0  0  0  0  0  0  0  0
   14.8798    6.0136   -9.4023 H   0  0  0  0  0  0  0  0  0  0  0  0
   13.2059    6.4651   -9.7399 H   0  0  0  0  0  0  0  0  0  0  0  0
   13.5618    5.1650   -8.5862 H   0  0  0  0  0  0  0  0  0  0  0  0
   12.9264   10.0282   -6.8365 H   0  0  0  0  0  0  0  0  0  0  0  0
   14.2591    5.4528   -4.4632 H   0  0  0  0  0  0  0  0  0  0  0  0
   15.7939    3.7784   -3.5825 H   0  0  0  0  0  0  0  0  0  0  0  0
   15.2873    1.0540   -6.6883 H   0  0  0  0  0  0  0  0  0  0  0  0
   16.5384    1.0896   -7.9446 H   0  0  0  0  0  0  0  0  0  0  0  0
   14.3795   -0.5200   -8.2190 H   0  0  0  0  0  0  0  0  0  0  0  0
   17.1060   -1.1848   -8.6523 H   0  0  0  0  0  0  0  0  0  0  0  0
   15.3849   -2.7978   -7.0860 H   0  0  0  0  0  0  0  0  0  0  0  0
   14.4246   -1.6476   -6.0966 H   0  0  0  0  0  0  0  0  0  0  0  0
   18.4116   -7.4331   -6.3262 H   0  0  0  0  0  0  0  0  0  0  0  0
   18.3101   -7.6778   -4.5627 H   0  0  0  0  0  0  0  0  0  0  0  0
   19.3391   -6.3851   -5.2393 H   0  0  0  0  0  0  0  0  0  0  0  0
  1  2  2  0  0  0  0
  2  3  1  0  0  0  0
  2 33  1  0  0  0  0
  4  3  1  0  0  0  0
  3 34  1  0  0  0  0
  4  5  1  0  0  0  0
  4 35  1  0  0  0  0
  4  9  1  0  0  0  0
  5  6  1  0  0  0  0
  5  7  1  0  0  0  0
  5  8  1  0  0  0  0
  6 36  1  0  0  0  0
  6 37  1  0  0  0  0
  6 38  1  0  0  0  0
  7 39  1  0  0  0  0
  7 40  1  0  0  0  0
  7 41  1  0  0  0  0
  8 42  1  0  0  0  0
  8 43  1  0  0  0  0
  8 44  1  0  0  0  0
  9 10  2  0  0  0  0
  9 11  1  0  0  0  0
 11 32  1  0  0  0  0
 12 11  1  0  0  0  0
 12 29  1  0  0  0  0
 12 45  1  0  0  0  0
 12 13  1  0  0  0  0
 13 14  2  0  0  0  0
 13 15  1  0  0  0  0
 15 46  1  0  0  0  0
 15 16  1  0  0  0  0
 16 47  1  0  0  0  0
 16 48  1  0  0  0  0
 16 17  1  0  0  0  0
 17 18  1  0  0  0  0
 17 28  2  0  0  0  0
 18 49  1  0  0  0  0
 18 19  2  0  0  0  0
 19 50  1  0  0  0  0
 19 20  1  0  0  0  0
 20 27  2  0  0  0  0
 20 21  1  0  0  0  0
 21 22  2  0  0  0  0
 21 26  1  0  0  0  0
 22 23  1  0  0  0  0
 22 24  1  0  0  0  0
 23 51  1  0  0  0  0
 23 52  1  0  0  0  0
 23 53  1  0  0  0  0
 24 25  2  0  0  0  0
 25 54  1  0  0  0  0
 25 26  1  0  0  0  0
 27 55  1  0  0  0  0
 27 28  1  0  0  0  0
 28 56  1  0  0  0  0
 30 29  1  0  0  0  0
 29 57  1  0  0  0  0
 29 58  1  0  0  0  0
 30 32  1  0  0  0  0
 30 59  1  0  0  0  0
 30 31  1  0  0  0  0
 31 60  1  0  0  0  0
 32 61  1  0  0  0  0
 32 62  1  0  0  0  0
 33 63  1  0  0  0  0
 33 64  1  0  0  0  0
 33 65  1  0  0  0  0
M  ZZC   1 o1
M  ZZC   2 c1
M  ZZC   3 n1
M  ZZC   4 c2
M  ZZC   5 c3
M  ZZC   6 c4
M  ZZC   7 c5
M  ZZC   8 c6
M  ZZC   9 c7
M  ZZC  10 o2
M  ZZC  11 n2
M  ZZC  12 c8
M  ZZC  13 c9
M  ZZC  14 o3
M  ZZC  15 n3
M  ZZC  16 c10
M  ZZC  17 c11
M  ZZC  18 c12
M  ZZC  19 c13
M  ZZC  20 c14
M  ZZC  21 c15
M  ZZC  22 c16
M  ZZC  23 c17
M  ZZC  24 n4
M  ZZC  25 c18
M  ZZC  26 s1
M  ZZC  27 c19
M  ZZC  28 c20
M  ZZC  29 c21
M  ZZC  30 c22
M  ZZC  31 o4
M  ZZC  32 c23
M  ZZC  33 c24
M  ZZC  34 h11
M  ZZC  35 h21
M  ZZC  36 h41
M  ZZC  37 h42
M  ZZC  38 h43
M  ZZC  39 h51
M  ZZC  40 h52
M  ZZC  41 h53
M  ZZC  42 h61
M  ZZC  43 h62
M  ZZC  44 h63
M  ZZC  45 h81
M  ZZC  46 h31
M  ZZC  47 h101
M  ZZC  48 h102
M  ZZC  49 h121
M  ZZC  50 h131
M  ZZC  51 h171
M  ZZC  52 h172
M  ZZC  53 h173
M  ZZC  54 h181
M  ZZC  55 h191
M  ZZC  56 h201
M  ZZC  57 h211
M  ZZC  58 h212
M  ZZC  59 h221
M  ZZC  60 h01
M  ZZC  61 h231
M  ZZC  62 h232
M  ZZC  63 h241
M  ZZC  64 h242
M  ZZC  65 h243
M  ZZM   1 7
M  ZZI   1 81
M  ZZM   2 3
M  ZZI   2 121
M  ZZM   3 10
M  ZZI   3 211
M  ZZM   4 1
M  ZZI   4 113
M  ZZM   5 1
M  ZZI   5 110
M  ZZM   6 1
M  ZZI   6 111
M  ZZM   7 1
M  ZZI   7 111
M  ZZM   8 1
M  ZZI   8 111
M  ZZM   9 3
M  ZZI   9 121
M  ZZM  10 7
M  ZZI  10 81
M  ZZM  11 10
M  ZZI  11 192
M  ZZM  12 1
M  ZZI  12 113
M  ZZM  13 3
M  ZZI  13 121
M  ZZM  14 7
M  ZZI  14 81
M  ZZM  15 10
M  ZZI  15 211
M  ZZM  16 1
M  ZZI  16 112
M  ZZM  17 37
M  ZZI  17 124
M  ZZM  18 37
M  ZZI  18 125
M  ZZM  19 37
M  ZZI  19 125
M  ZZM  20 37
M  ZZI  20 124
M  ZZM  21 63
M  ZZI  21 104
M  ZZM  22 64
M  ZZI  22 105
M  ZZM  23 1
M  ZZI  23 111
M  ZZM  24 66
M  ZZI  24 222
M  ZZM  25 63
M  ZZI  25 104
M  ZZM  26 44
M  ZZI  26 248
M  ZZM  27 37
M  ZZI  27 125
M  ZZM  28 37
M  ZZI  28 125
M  ZZM  29 1
M  ZZI  29 112
M  ZZM  30 1
M  ZZI  30 113
M  ZZM  31 6
M  ZZI  31 60
M  ZZM  32 1
M  ZZI  32 112
M  ZZM  33 1
M  ZZI  33 111
M  ZZM  34 28
M  ZZI  34 11
M  ZZM  35 5
M  ZZI  35 1
M  ZZM  36 5
M  ZZI  36 1
M  ZZM  37 5
M  ZZI  37 1
M  ZZM  38 5
M  ZZI  38 1
M  ZZM  39 5
M  ZZI  39 1
M  ZZM  40 5
M  ZZI  40 1
M  ZZM  41 5
M  ZZI  41 1
M  ZZM  42 5
M  ZZI  42 1
M  ZZM  43 5
M  ZZI  43 1
M  ZZM  44 5
M  ZZI  44 1
M  ZZM  45 5
M  ZZI  45 1
M  ZZM  46 28
M  ZZI  46 11
M  ZZM  47 5
M  ZZI  47 1
M  ZZM  48 5
M  ZZI  48 1
M  ZZM  49 5
M  ZZI  49 1
M  ZZM  50 5
M  ZZI  50 1
M  ZZM  51 5
M  ZZI  51 1
M  ZZM  52 5
M  ZZI  52 1
M  ZZM  53 5
M  ZZI  53 1
M  ZZM  54 5
M  ZZI  54 1
M  ZZM  55 5
M  ZZI  55 1
M  ZZM  56 5
M  ZZI  56 1
M  ZZM  57 5
M  ZZI  57 1
M  ZZM  58 5
M  ZZI  58 1
M  ZZM  59 5
M  ZZI  59 1
M  ZZM  60 21
M  ZZI  60 20
M  ZZM  61 5
M  ZZI  61 1
M  ZZM  62 5
M  ZZI  62 1
M  ZZM  63 5
M  ZZI  63 1
M  ZZM  64 5
M  ZZI  64 1
M  ZZM  65 5
M  ZZI  65 1
M  END
> <IX>
1

> <NAME>
VHL_4CI3_19.pdb

> <Score>
-24.317766

> <Natom>
65

> <Nflex>
8

> <Hbond>
-7.833974

> <Hphob>
-6.379686

> <VwInt>
-30.340677

> <Dsolv>
21.34252

> <SolEl>
10.086686

> <Eintl>
4.421919

> <RecConf>
ND

> <projPath>
VHL_maps/

> <NAME_>
VHL_4CI3_19.pdb

$$$$
