VHL_6UT0_2.pdb
  MOLSOFT 04032206423D

 65 67  0  0  1  0  0  0  0  0999 V2000
   18.5181   -6.6408   -5.4909 C   0  0  0  0  0  0  0  0  0  0  0  0
   17.2847   -5.7843   -5.3784 C   0  0  0  0  0  0  0  0  0  0  0  0
   16.1829   -6.2398   -5.6412 O   0  0  0  0  0  0  0  0  0  0  0  0
   17.5343   -4.4958   -4.9403 N   0  0  0  0  0  0  0  0  0  0  0  0
   16.5005   -3.4712   -4.7501 C   0  0  1  0  0  0  0  0  0  0  0  0
   15.9101   -3.4564   -3.3002 C   0  0  0  0  0  0  0  0  0  0  0  0
   15.4833   -4.8607   -2.8421 C   0  0  0  0  0  0  0  0  0  0  0  0
   14.6547   -2.5734   -3.2484 C   0  0  0  0  0  0  0  0  0  0  0  0
   16.9263   -2.9294   -2.2758 C   0  0  0  0  0  0  0  0  0  0  0  0
   17.1328   -2.1211   -5.1574 C   0  0  0  0  0  0  0  0  0  0  0  0
   18.2672   -1.8339   -4.8045 O   0  0  0  0  0  0  0  0  0  0  0  0
   16.3740   -1.2050   -5.8932 N   0  0  0  0  0  0  0  0  0  0  0  0
   16.9093    0.1274   -6.1927 C   0  0  2  0  0  0  0  0  0  0  0  0
   16.8723    1.0936   -5.0062 C   0  0  0  0  0  0  0  0  0  0  0  0
   17.7406    1.9406   -4.8529 O   0  0  0  0  0  0  0  0  0  0  0  0
   15.7077    1.0523   -4.2606 N   0  0  0  0  0  0  0  0  0  0  0  0
   15.4145    2.0053   -3.2078 C   0  0  0  0  0  0  0  0  0  0  0  0
   15.1144    1.3215   -1.9014 C   0  0  0  0  0  0  0  0  0  0  0  0
   16.1220    0.6622   -1.2064 C   0  0  0  0  0  0  0  0  0  0  0  0
   15.8598    0.0300   -0.0036 C   0  0  0  0  0  0  0  0  0  0  0  0
   14.5819    0.0448    0.5431 C   0  0  0  0  0  0  0  0  0  0  0  0
   14.3060   -0.6214    1.8096 C   0  0  0  0  0  0  0  0  0  0  0  0
   14.5262   -1.9324    2.2121 C   0  0  0  0  0  0  0  0  0  0  0  0
   15.1406   -3.0171    1.4153 C   0  0  0  0  0  0  0  0  0  0  0  0
   14.1055   -2.2330    3.4926 N   0  0  0  0  0  0  0  0  0  0  0  0
   13.6068   -1.1564    4.0561 C   0  0  0  0  0  0  0  0  0  0  0  0
   13.6168    0.2658    3.1121 S   0  0  0  0  0  0  0  0  0  0  0  0
   13.5754    0.7091   -0.1505 C   0  0  0  0  0  0  0  0  0  0  0  0
   13.8349    1.3390   -1.3560 C   0  0  0  0  0  0  0  0  0  0  0  0
   16.0224    0.6782   -7.3070 C   0  0  0  0  0  0  0  0  0  0  0  0
   15.3836   -0.5500   -7.9191 C   0  0  1  0  0  0  0  0  0  0  0  0
   16.2242   -1.0871   -8.9494 O   0  0  0  0  0  0  0  0  0  0  0  0
   15.2577   -1.5264   -6.7593 C   0  0  0  0  0  0  0  0  0  0  0  0
   19.4325   -6.0415   -5.4570 H   0  0  0  0  0  0  0  0  0  0  0  0
   18.4968   -7.1785   -6.4427 H   0  0  0  0  0  0  0  0  0  0  0  0
   18.5244   -7.3626   -4.6700 H   0  0  0  0  0  0  0  0  0  0  0  0
   18.4938   -4.2314   -4.7466 H   0  0  0  0  0  0  0  0  0  0  0  0
   15.7097   -3.7103   -5.4489 H   0  0  0  0  0  0  0  0  0  0  0  0
   15.0107   -4.8343   -1.8550 H   0  0  0  0  0  0  0  0  0  0  0  0
   16.3312   -5.5462   -2.7620 H   0  0  0  0  0  0  0  0  0  0  0  0
   14.7567   -5.3000   -3.5281 H   0  0  0  0  0  0  0  0  0  0  0  0
   14.8864   -1.5289   -3.4812 H   0  0  0  0  0  0  0  0  0  0  0  0
   14.1935   -2.5913   -2.2558 H   0  0  0  0  0  0  0  0  0  0  0  0
   13.9026   -2.8950   -3.9681 H   0  0  0  0  0  0  0  0  0  0  0  0
   16.5355   -2.9929   -1.2569 H   0  0  0  0  0  0  0  0  0  0  0  0
   17.1841   -1.8821   -2.4517 H   0  0  0  0  0  0  0  0  0  0  0  0
   17.8540   -3.5042   -2.2999 H   0  0  0  0  0  0  0  0  0  0  0  0
   17.9488    0.0214   -6.5182 H   0  0  0  0  0  0  0  0  0  0  0  0
   15.0116    0.3493   -4.4777 H   0  0  0  0  0  0  0  0  0  0  0  0
   16.2446    2.7076   -3.0786 H   0  0  0  0  0  0  0  0  0  0  0  0
   14.5506    2.5886   -3.5436 H   0  0  0  0  0  0  0  0  0  0  0  0
   17.1323    0.6373   -1.6063 H   0  0  0  0  0  0  0  0  0  0  0  0
   16.6750   -0.4681    0.5124 H   0  0  0  0  0  0  0  0  0  0  0  0
   15.0487   -3.9742    1.9320 H   0  0  0  0  0  0  0  0  0  0  0  0
   16.2065   -2.8294    1.2607 H   0  0  0  0  0  0  0  0  0  0  0  0
   14.6561   -3.1143    0.4396 H   0  0  0  0  0  0  0  0  0  0  0  0
   13.2145   -1.1604    5.0627 H   0  0  0  0  0  0  0  0  0  0  0  0
   12.5667    0.7371    0.2472 H   0  0  0  0  0  0  0  0  0  0  0  0
   13.0244    1.8511   -1.8670 H   0  0  0  0  0  0  0  0  0  0  0  0
   15.2437    1.3404   -6.9124 H   0  0  0  0  0  0  0  0  0  0  0  0
   16.6075    1.2533   -8.0312 H   0  0  0  0  0  0  0  0  0  0  0  0
   14.4150   -0.3158   -8.3597 H   0  0  0  0  0  0  0  0  0  0  0  0
   17.1454   -1.0370   -8.6321 H   0  0  0  0  0  0  0  0  0  0  0  0
   15.3036   -2.5642   -7.0977 H   0  0  0  0  0  0  0  0  0  0  0  0
   14.3388   -1.3548   -6.1888 H   0  0  0  0  0  0  0  0  0  0  0  0
  1 34  1  0  0  0  0
  1 35  1  0  0  0  0
  1 36  1  0  0  0  0
  1  2  1  0  0  0  0
  2  3  2  0  0  0  0
  2  4  1  0  0  0  0
  4 37  1  0  0  0  0
  5  4  1  0  0  0  0
  5 38  1  0  0  0  0
  5  6  1  0  0  0  0
  5 10  1  0  0  0  0
  6  7  1  0  0  0  0
  6  8  1  0  0  0  0
  6  9  1  0  0  0  0
  7 39  1  0  0  0  0
  7 40  1  0  0  0  0
  7 41  1  0  0  0  0
  8 42  1  0  0  0  0
  8 43  1  0  0  0  0
  8 44  1  0  0  0  0
  9 45  1  0  0  0  0
  9 46  1  0  0  0  0
  9 47  1  0  0  0  0
 10 11  2  0  0  0  0
 10 12  1  0  0  0  0
 12 33  1  0  0  0  0
 13 12  1  0  0  0  0
 13 30  1  0  0  0  0
 13 48  1  0  0  0  0
 13 14  1  0  0  0  0
 14 15  2  0  0  0  0
 14 16  1  0  0  0  0
 16 49  1  0  0  0  0
 16 17  1  0  0  0  0
 17 50  1  0  0  0  0
 17 51  1  0  0  0  0
 17 18  1  0  0  0  0
 18 19  1  0  0  0  0
 18 29  2  0  0  0  0
 19 52  1  0  0  0  0
 19 20  2  0  0  0  0
 20 53  1  0  0  0  0
 20 21  1  0  0  0  0
 21 28  2  0  0  0  0
 21 22  1  0  0  0  0
 22 23  2  0  0  0  0
 22 27  1  0  0  0  0
 23 24  1  0  0  0  0
 23 25  1  0  0  0  0
 24 54  1  0  0  0  0
 24 55  1  0  0  0  0
 24 56  1  0  0  0  0
 25 26  2  0  0  0  0
 26 57  1  0  0  0  0
 26 27  1  0  0  0  0
 28 58  1  0  0  0  0
 28 29  1  0  0  0  0
 29 59  1  0  0  0  0
 31 30  1  0  0  0  0
 30 60  1  0  0  0  0
 30 61  1  0  0  0  0
 31 33  1  0  0  0  0
 31 62  1  0  0  0  0
 31 32  1  0  0  0  0
 32 63  1  0  0  0  0
 33 64  1  0  0  0  0
 33 65  1  0  0  0  0
M  ZZC   1 c1
M  ZZC   2 c2
M  ZZC   3 o1
M  ZZC   4 n1
M  ZZC   5 c3
M  ZZC   6 c4
M  ZZC   7 c5
M  ZZC   8 c6
M  ZZC   9 c7
M  ZZC  10 c8
M  ZZC  11 o2
M  ZZC  12 n2
M  ZZC  13 c9
M  ZZC  14 c10
M  ZZC  15 o3
M  ZZC  16 n3
M  ZZC  17 c11
M  ZZC  18 c12
M  ZZC  19 c13
M  ZZC  20 c14
M  ZZC  21 c15
M  ZZC  22 c16
M  ZZC  23 c17
M  ZZC  24 c18
M  ZZC  25 n4
M  ZZC  26 c19
M  ZZC  27 s1
M  ZZC  28 c20
M  ZZC  29 c21
M  ZZC  30 c22
M  ZZC  31 c23
M  ZZC  32 o4
M  ZZC  33 c24
M  ZZC  34 h11
M  ZZC  35 h12
M  ZZC  36 h13
M  ZZC  37 h01
M  ZZC  38 h31
M  ZZC  39 h51
M  ZZC  40 h52
M  ZZC  41 h53
M  ZZC  42 h61
M  ZZC  43 h62
M  ZZC  44 h63
M  ZZC  45 h71
M  ZZC  46 h72
M  ZZC  47 h73
M  ZZC  48 h91
M  ZZC  49 h02
M  ZZC  50 h111
M  ZZC  51 h112
M  ZZC  52 h131
M  ZZC  53 h141
M  ZZC  54 h181
M  ZZC  55 h182
M  ZZC  56 h183
M  ZZC  57 h191
M  ZZC  58 h201
M  ZZC  59 h211
M  ZZC  60 h221
M  ZZC  61 h222
M  ZZC  62 h231
M  ZZC  63 h41
M  ZZC  64 h241
M  ZZC  65 h242
M  ZZM   1 1
M  ZZI   1 111
M  ZZM   2 3
M  ZZI   2 121
M  ZZM   3 7
M  ZZI   3 81
M  ZZM   4 10
M  ZZI   4 211
M  ZZM   5 1
M  ZZI   5 113
M  ZZM   6 1
M  ZZI   6 110
M  ZZM   7 1
M  ZZI   7 111
M  ZZM   8 1
M  ZZI   8 111
M  ZZM   9 1
M  ZZI   9 111
M  ZZM  10 3
M  ZZI  10 121
M  ZZM  11 7
M  ZZI  11 81
M  ZZM  12 10
M  ZZI  12 192
M  ZZM  13 1
M  ZZI  13 113
M  ZZM  14 3
M  ZZI  14 121
M  ZZM  15 7
M  ZZI  15 81
M  ZZM  16 10
M  ZZI  16 211
M  ZZM  17 1
M  ZZI  17 112
M  ZZM  18 37
M  ZZI  18 124
M  ZZM  19 37
M  ZZI  19 125
M  ZZM  20 37
M  ZZI  20 125
M  ZZM  21 37
M  ZZI  21 124
M  ZZM  22 63
M  ZZI  22 104
M  ZZM  23 64
M  ZZI  23 105
M  ZZM  24 1
M  ZZI  24 111
M  ZZM  25 66
M  ZZI  25 222
M  ZZM  26 63
M  ZZI  26 104
M  ZZM  27 44
M  ZZI  27 248
M  ZZM  28 37
M  ZZI  28 125
M  ZZM  29 37
M  ZZI  29 125
M  ZZM  30 1
M  ZZI  30 112
M  ZZM  31 1
M  ZZI  31 113
M  ZZM  32 6
M  ZZI  32 60
M  ZZM  33 1
M  ZZI  33 112
M  ZZM  34 5
M  ZZI  34 1
M  ZZM  35 5
M  ZZI  35 1
M  ZZM  36 5
M  ZZI  36 1
M  ZZM  37 28
M  ZZI  37 11
M  ZZM  38 5
M  ZZI  38 1
M  ZZM  39 5
M  ZZI  39 1
M  ZZM  40 5
M  ZZI  40 1
M  ZZM  41 5
M  ZZI  41 1
M  ZZM  42 5
M  ZZI  42 1
M  ZZM  43 5
M  ZZI  43 1
M  ZZM  44 5
M  ZZI  44 1
M  ZZM  45 5
M  ZZI  45 1
M  ZZM  46 5
M  ZZI  46 1
M  ZZM  47 5
M  ZZI  47 1
M  ZZM  48 5
M  ZZI  48 1
M  ZZM  49 28
M  ZZI  49 11
M  ZZM  50 5
M  ZZI  50 1
M  ZZM  51 5
M  ZZI  51 1
M  ZZM  52 5
M  ZZI  52 1
M  ZZM  53 5
M  ZZI  53 1
M  ZZM  54 5
M  ZZI  54 1
M  ZZM  55 5
M  ZZI  55 1
M  ZZM  56 5
M  ZZI  56 1
M  ZZM  57 5
M  ZZI  57 1
M  ZZM  58 5
M  ZZI  58 1
M  ZZM  59 5
M  ZZI  59 1
M  ZZM  60 5
M  ZZI  60 1
M  ZZM  61 5
M  ZZI  61 1
M  ZZM  62 5
M  ZZI  62 1
M  ZZM  63 21
M  ZZI  63 20
M  ZZM  64 5
M  ZZI  64 1
M  ZZM  65 5
M  ZZI  65 1
M  END
> <IX>
1

> <NAME>
VHL_6UT0_2.pdb

> <Score>
-29.257628

> <Natom>
65

> <Nflex>
8

> <Hbond>
-7.86155

> <Hphob>
-6.795373

> <VwInt>
-27.91041

> <Dsolv>
16.055154

> <SolEl>
6.459723

> <Eintl>
3.3177

> <RecConf>
ND

> <projPath>
VHL_maps/

> <NAME_>
VHL_6UT0_2.pdb

$$$$
