VHL_5VBP_12.pdb
  MOLSOFT 04032206423D

 65 67  0  0  1  0  0  0  0  0999 V2000
   18.1052   -6.6455   -5.1061 C   0  0  0  0  0  0  0  0  0  0  0  0
   16.8936   -5.7679   -4.9506 C   0  0  0  0  0  0  0  0  0  0  0  0
   15.8084   -6.1180   -5.3809 O   0  0  0  0  0  0  0  0  0  0  0  0
   17.1392   -4.5968   -4.2608 N   0  0  0  0  0  0  0  0  0  0  0  0
   16.1347   -3.5530   -3.9975 C   0  0  1  0  0  0  0  0  0  0  0  0
   15.9037   -3.3427   -2.4713 C   0  0  0  0  0  0  0  0  0  0  0  0
   14.8010   -2.3189   -2.1767 C   0  0  0  0  0  0  0  0  0  0  0  0
   17.1734   -2.8735   -1.7462 C   0  0  0  0  0  0  0  0  0  0  0  0
   15.4415   -4.6743   -1.8685 C   0  0  0  0  0  0  0  0  0  0  0  0
   16.6275   -2.3213   -4.7863 C   0  0  0  0  0  0  0  0  0  0  0  0
   17.8223   -2.0543   -4.8465 O   0  0  0  0  0  0  0  0  0  0  0  0
   15.6735   -1.5538   -5.4624 N   0  0  0  0  0  0  0  0  0  0  0  0
   16.0649   -0.6445   -6.5294 C   0  0  2  0  0  0  0  0  0  0  0  0
   16.4459    0.7488   -6.0218 C   0  0  0  0  0  0  0  0  0  0  0  0
   15.9230    1.2694   -5.0457 O   0  0  0  0  0  0  0  0  0  0  0  0
   17.3786    1.3826   -6.8218 N   0  0  0  0  0  0  0  0  0  0  0  0
   17.8280    2.7389   -6.5542 C   0  0  0  0  0  0  0  0  0  0  0  0
   19.2387    3.0184   -7.0153 C   0  0  0  0  0  0  0  0  0  0  0  0
   19.6536    4.3233   -7.2732 C   0  0  0  0  0  0  0  0  0  0  0  0
   20.9635    4.6014   -7.6393 C   0  0  0  0  0  0  0  0  0  0  0  0
   21.8954    3.5776   -7.7558 C   0  0  0  0  0  0  0  0  0  0  0  0
   23.2807    3.8380   -8.1127 C   0  0  0  0  0  0  0  0  0  0  0  0
   24.3476    4.2572   -7.3309 C   0  0  0  0  0  0  0  0  0  0  0  0
   24.3150    4.5889   -5.8885 C   0  0  0  0  0  0  0  0  0  0  0  0
   25.5580    4.3382   -7.9899 N   0  0  0  0  0  0  0  0  0  0  0  0
   25.3981    4.0059   -9.2512 C   0  0  0  0  0  0  0  0  0  0  0  0
   23.8135    3.5885   -9.7277 S   0  0  0  0  0  0  0  0  0  0  0  0
   21.4823    2.2805   -7.4979 C   0  0  0  0  0  0  0  0  0  0  0  0
   20.1817    2.0052   -7.1299 C   0  0  0  0  0  0  0  0  0  0  0  0
   14.8278   -0.5761   -7.4106 C   0  0  0  0  0  0  0  0  0  0  0  0
   13.6760   -0.6944   -6.4236 C   0  0  1  0  0  0  0  0  0  0  0  0
   12.5329   -1.3091   -7.0121 O   0  0  0  0  0  0  0  0  0  0  0  0
   14.2272   -1.5845   -5.3227 C   0  0  0  0  0  0  0  0  0  0  0  0
   19.0082   -6.0451   -5.2522 H   0  0  0  0  0  0  0  0  0  0  0  0
   17.9766   -7.2918   -5.9797 H   0  0  0  0  0  0  0  0  0  0  0  0
   18.2129   -7.2675   -4.2146 H   0  0  0  0  0  0  0  0  0  0  0  0
   18.1004   -4.3949   -4.0098 H   0  0  0  0  0  0  0  0  0  0  0  0
   15.1991   -3.9003   -4.4369 H   0  0  0  0  0  0  0  0  0  0  0  0
   15.0812   -1.3156   -2.5093 H   0  0  0  0  0  0  0  0  0  0  0  0
   14.6022   -2.2439   -1.1024 H   0  0  0  0  0  0  0  0  0  0  0  0
   13.8565   -2.6019   -2.6511 H   0  0  0  0  0  0  0  0  0  0  0  0
   17.0030   -2.7721   -0.6695 H   0  0  0  0  0  0  0  0  0  0  0  0
   17.5160   -1.9010   -2.1129 H   0  0  0  0  0  0  0  0  0  0  0  0
   17.9932   -3.5789   -1.8697 H   0  0  0  0  0  0  0  0  0  0  0  0
   15.1885   -4.5590   -0.8115 H   0  0  0  0  0  0  0  0  0  0  0  0
   16.2133   -5.4421   -1.9458 H   0  0  0  0  0  0  0  0  0  0  0  0
   14.5514   -5.0586   -2.3768 H   0  0  0  0  0  0  0  0  0  0  0  0
   16.9129   -1.0676   -7.0780 H   0  0  0  0  0  0  0  0  0  0  0  0
   17.7722    0.8826   -7.6142 H   0  0  0  0  0  0  0  0  0  0  0  0
   17.1273    3.4012   -7.0742 H   0  0  0  0  0  0  0  0  0  0  0  0
   17.7510    2.9411   -5.4806 H   0  0  0  0  0  0  0  0  0  0  0  0
   18.9499    5.1457   -7.1823 H   0  0  0  0  0  0  0  0  0  0  0  0
   21.2540    5.6300   -7.8322 H   0  0  0  0  0  0  0  0  0  0  0  0
   25.2765    4.9898   -5.5551 H   0  0  0  0  0  0  0  0  0  0  0  0
   24.1031    3.6974   -5.2937 H   0  0  0  0  0  0  0  0  0  0  0  0
   23.5478    5.3388   -5.6754 H   0  0  0  0  0  0  0  0  0  0  0  0
   26.2177    3.9973   -9.9555 H   0  0  0  0  0  0  0  0  0  0  0  0
   22.1807    1.4574   -7.5841 H   0  0  0  0  0  0  0  0  0  0  0  0
   19.9124    0.9746   -6.9312 H   0  0  0  0  0  0  0  0  0  0  0  0
   14.7618    0.3373   -8.0110 H   0  0  0  0  0  0  0  0  0  0  0  0
   14.8162   -1.4235   -8.1048 H   0  0  0  0  0  0  0  0  0  0  0  0
   13.3852    0.2846   -6.0257 H   0  0  0  0  0  0  0  0  0  0  0  0
   12.1863   -0.7145   -7.7017 H   0  0  0  0  0  0  0  0  0  0  0  0
   13.8478   -2.6067   -5.3622 H   0  0  0  0  0  0  0  0  0  0  0  0
   13.9521   -1.1627   -4.3563 H   0  0  0  0  0  0  0  0  0  0  0  0
  1 34  1  0  0  0  0
  1 35  1  0  0  0  0
  1 36  1  0  0  0  0
  1  2  1  0  0  0  0
  2  3  2  0  0  0  0
  2  4  1  0  0  0  0
  4 37  1  0  0  0  0
  5  4  1  0  0  0  0
  5 38  1  0  0  0  0
  5  6  1  0  0  0  0
  5 10  1  0  0  0  0
  6  7  1  0  0  0  0
  6  8  1  0  0  0  0
  6  9  1  0  0  0  0
  7 39  1  0  0  0  0
  7 40  1  0  0  0  0
  7 41  1  0  0  0  0
  8 42  1  0  0  0  0
  8 43  1  0  0  0  0
  8 44  1  0  0  0  0
  9 45  1  0  0  0  0
  9 46  1  0  0  0  0
  9 47  1  0  0  0  0
 10 11  2  0  0  0  0
 10 12  1  0  0  0  0
 12 33  1  0  0  0  0
 13 12  1  0  0  0  0
 13 30  1  0  0  0  0
 13 48  1  0  0  0  0
 13 14  1  0  0  0  0
 14 15  2  0  0  0  0
 14 16  1  0  0  0  0
 16 49  1  0  0  0  0
 16 17  1  0  0  0  0
 17 50  1  0  0  0  0
 17 51  1  0  0  0  0
 17 18  1  0  0  0  0
 18 19  1  0  0  0  0
 18 29  2  0  0  0  0
 19 52  1  0  0  0  0
 19 20  2  0  0  0  0
 20 53  1  0  0  0  0
 20 21  1  0  0  0  0
 21 28  2  0  0  0  0
 21 22  1  0  0  0  0
 22 23  2  0  0  0  0
 22 27  1  0  0  0  0
 23 24  1  0  0  0  0
 23 25  1  0  0  0  0
 24 54  1  0  0  0  0
 24 55  1  0  0  0  0
 24 56  1  0  0  0  0
 25 26  2  0  0  0  0
 26 57  1  0  0  0  0
 26 27  1  0  0  0  0
 28 58  1  0  0  0  0
 28 29  1  0  0  0  0
 29 59  1  0  0  0  0
 31 30  1  0  0  0  0
 30 60  1  0  0  0  0
 30 61  1  0  0  0  0
 31 33  1  0  0  0  0
 31 62  1  0  0  0  0
 31 32  1  0  0  0  0
 32 63  1  0  0  0  0
 33 64  1  0  0  0  0
 33 65  1  0  0  0  0
M  ZZC   1 c1
M  ZZC   2 c2
M  ZZC   3 o1
M  ZZC   4 n1
M  ZZC   5 c3
M  ZZC   6 c4
M  ZZC   7 c5
M  ZZC   8 c6
M  ZZC   9 c7
M  ZZC  10 c8
M  ZZC  11 o2
M  ZZC  12 n2
M  ZZC  13 c9
M  ZZC  14 c10
M  ZZC  15 o3
M  ZZC  16 n3
M  ZZC  17 c11
M  ZZC  18 c12
M  ZZC  19 c13
M  ZZC  20 c14
M  ZZC  21 c15
M  ZZC  22 c16
M  ZZC  23 c17
M  ZZC  24 c18
M  ZZC  25 n4
M  ZZC  26 c19
M  ZZC  27 s1
M  ZZC  28 c20
M  ZZC  29 c21
M  ZZC  30 c22
M  ZZC  31 c23
M  ZZC  32 o4
M  ZZC  33 c24
M  ZZC  34 h11
M  ZZC  35 h12
M  ZZC  36 h13
M  ZZC  37 h01
M  ZZC  38 h31
M  ZZC  39 h51
M  ZZC  40 h52
M  ZZC  41 h53
M  ZZC  42 h61
M  ZZC  43 h62
M  ZZC  44 h63
M  ZZC  45 h71
M  ZZC  46 h72
M  ZZC  47 h73
M  ZZC  48 h91
M  ZZC  49 h02
M  ZZC  50 h111
M  ZZC  51 h112
M  ZZC  52 h131
M  ZZC  53 h141
M  ZZC  54 h181
M  ZZC  55 h182
M  ZZC  56 h183
M  ZZC  57 h191
M  ZZC  58 h201
M  ZZC  59 h211
M  ZZC  60 h221
M  ZZC  61 h222
M  ZZC  62 h231
M  ZZC  63 h41
M  ZZC  64 h241
M  ZZC  65 h242
M  ZZM   1 1
M  ZZI   1 111
M  ZZM   2 3
M  ZZI   2 121
M  ZZM   3 7
M  ZZI   3 81
M  ZZM   4 10
M  ZZI   4 211
M  ZZM   5 1
M  ZZI   5 113
M  ZZM   6 1
M  ZZI   6 110
M  ZZM   7 1
M  ZZI   7 111
M  ZZM   8 1
M  ZZI   8 111
M  ZZM   9 1
M  ZZI   9 111
M  ZZM  10 3
M  ZZI  10 121
M  ZZM  11 7
M  ZZI  11 81
M  ZZM  12 10
M  ZZI  12 192
M  ZZM  13 1
M  ZZI  13 113
M  ZZM  14 3
M  ZZI  14 121
M  ZZM  15 7
M  ZZI  15 81
M  ZZM  16 10
M  ZZI  16 211
M  ZZM  17 1
M  ZZI  17 112
M  ZZM  18 37
M  ZZI  18 124
M  ZZM  19 37
M  ZZI  19 125
M  ZZM  20 37
M  ZZI  20 125
M  ZZM  21 37
M  ZZI  21 124
M  ZZM  22 63
M  ZZI  22 104
M  ZZM  23 64
M  ZZI  23 105
M  ZZM  24 1
M  ZZI  24 111
M  ZZM  25 66
M  ZZI  25 222
M  ZZM  26 63
M  ZZI  26 104
M  ZZM  27 44
M  ZZI  27 248
M  ZZM  28 37
M  ZZI  28 125
M  ZZM  29 37
M  ZZI  29 125
M  ZZM  30 1
M  ZZI  30 112
M  ZZM  31 1
M  ZZI  31 113
M  ZZM  32 6
M  ZZI  32 60
M  ZZM  33 1
M  ZZI  33 112
M  ZZM  34 5
M  ZZI  34 1
M  ZZM  35 5
M  ZZI  35 1
M  ZZM  36 5
M  ZZI  36 1
M  ZZM  37 28
M  ZZI  37 11
M  ZZM  38 5
M  ZZI  38 1
M  ZZM  39 5
M  ZZI  39 1
M  ZZM  40 5
M  ZZI  40 1
M  ZZM  41 5
M  ZZI  41 1
M  ZZM  42 5
M  ZZI  42 1
M  ZZM  43 5
M  ZZI  43 1
M  ZZM  44 5
M  ZZI  44 1
M  ZZM  45 5
M  ZZI  45 1
M  ZZM  46 5
M  ZZI  46 1
M  ZZM  47 5
M  ZZI  47 1
M  ZZM  48 5
M  ZZI  48 1
M  ZZM  49 28
M  ZZI  49 11
M  ZZM  50 5
M  ZZI  50 1
M  ZZM  51 5
M  ZZI  51 1
M  ZZM  52 5
M  ZZI  52 1
M  ZZM  53 5
M  ZZI  53 1
M  ZZM  54 5
M  ZZI  54 1
M  ZZM  55 5
M  ZZI  55 1
M  ZZM  56 5
M  ZZI  56 1
M  ZZM  57 5
M  ZZI  57 1
M  ZZM  58 5
M  ZZI  58 1
M  ZZM  59 5
M  ZZI  59 1
M  ZZM  60 5
M  ZZI  60 1
M  ZZM  61 5
M  ZZI  61 1
M  ZZM  62 5
M  ZZI  62 1
M  ZZM  63 21
M  ZZI  63 20
M  ZZM  64 5
M  ZZI  64 1
M  ZZM  65 5
M  ZZI  65 1
M  END
> <IX>
1

> <NAME>
VHL_5VBP_12.pdb

> <Score>
-11.991364

> <Natom>
65

> <Nflex>
8

> <Hbond>
-4.957514

> <Hphob>
-6.550395

> <VwInt>
-28.001646

> <Dsolv>
16.818095

> <SolEl>
16.733418

> <Eintl>
7.473216

> <RecConf>
ND

> <projPath>
VHL_maps/

> <NAME_>
VHL_5VBP_12.pdb

$$$$
