VHL_5VBP_17.pdb
  MOLSOFT 04032206423D

 65 67  0  0  1  0  0  0  0  0999 V2000
   16.0685    4.3189   -4.4871 C   0  0  0  0  0  0  0  0  0  0  0  0
   17.2779    4.0593   -5.1245 C   0  0  0  0  0  0  0  0  0  0  0  0
   17.5728    4.7494   -6.2972 C   0  0  0  0  0  0  0  0  0  0  0  0
   16.6952    5.6935   -6.8025 C   0  0  0  0  0  0  0  0  0  0  0  0
   15.5021    5.9754   -6.1459 C   0  0  0  0  0  0  0  0  0  0  0  0
   14.6155    7.0144   -6.6474 C   0  0  0  0  0  0  0  0  0  0  0  0
   13.9301    7.1307   -7.8501 C   0  0  0  0  0  0  0  0  0  0  0  0
   13.8910    6.1427   -8.9519 C   0  0  0  0  0  0  0  0  0  0  0  0
   13.2221    8.3059   -8.0053 N   0  0  0  0  0  0  0  0  0  0  0  0
   13.3711    9.0514   -6.9335 C   0  0  0  0  0  0  0  0  0  0  0  0
   14.3227    8.4031   -5.6788 S   0  0  0  0  0  0  0  0  0  0  0  0
   15.1937    5.2677   -4.9885 C   0  0  0  0  0  0  0  0  0  0  0  0
   18.2199    3.0103   -4.5922 C   0  0  0  0  0  0  0  0  0  0  0  0
   18.1061    1.8041   -5.3775 N   0  0  0  0  0  0  0  0  0  0  0  0
   17.2018    0.8054   -5.0690 C   0  0  0  0  0  0  0  0  0  0  0  0
   16.5537    0.7534   -4.0325 O   0  0  0  0  0  0  0  0  0  0  0  0
   17.0266   -0.1676   -6.2268 C   0  0  1  0  0  0  0  0  0  0  0  0
   16.4653   -1.4654   -5.8717 N   0  0  0  0  0  0  0  0  0  0  0  0
   17.2021   -2.3731   -5.1119 C   0  0  0  0  0  0  0  0  0  0  0  0
   18.3560   -2.1273   -4.7908 O   0  0  0  0  0  0  0  0  0  0  0  0
   16.5096   -3.6688   -4.6448 C   0  0  2  0  0  0  0  0  0  0  0  0
   15.8874   -3.5478   -3.2161 C   0  0  0  0  0  0  0  0  0  0  0  0
   14.6615   -2.6211   -3.2460 C   0  0  0  0  0  0  0  0  0  0  0  0
   15.4093   -4.9174   -2.7092 C   0  0  0  0  0  0  0  0  0  0  0  0
   16.8893   -2.9915   -2.1921 C   0  0  0  0  0  0  0  0  0  0  0  0
   17.4866   -4.7566   -4.7645 N   0  0  0  0  0  0  0  0  0  0  0  0
   17.2001   -6.0047   -5.2867 C   0  0  0  0  0  0  0  0  0  0  0  0
   16.0977   -6.3689   -5.6634 O   0  0  0  0  0  0  0  0  0  0  0  0
   18.3865   -6.9270   -5.3434 C   0  0  0  0  0  0  0  0  0  0  0  0
   15.3206   -1.7770   -6.7041 C   0  0  0  0  0  0  0  0  0  0  0  0
   15.3728   -0.7606   -7.8368 C   0  0  2  0  0  0  0  0  0  0  0  0
   16.1713   -1.2413   -8.9274 O   0  0  0  0  0  0  0  0  0  0  0  0
   16.0370    0.4439   -7.2127 C   0  0  0  0  0  0  0  0  0  0  0  0
   15.7962    3.7747   -3.5869 H   0  0  0  0  0  0  0  0  0  0  0  0
   18.5001    4.5553   -6.8285 H   0  0  0  0  0  0  0  0  0  0  0  0
   16.9625    6.2293   -7.7091 H   0  0  0  0  0  0  0  0  0  0  0  0
   14.8764    6.0265   -9.4120 H   0  0  0  0  0  0  0  0  0  0  0  0
   13.1944    6.4587   -9.7343 H   0  0  0  0  0  0  0  0  0  0  0  0
   13.5756    5.1618   -8.5852 H   0  0  0  0  0  0  0  0  0  0  0  0
   12.9223   10.0266   -6.8340 H   0  0  0  0  0  0  0  0  0  0  0  0
   14.2601    5.4502   -4.4636 H   0  0  0  0  0  0  0  0  0  0  0  0
   19.2563    3.3581   -4.6562 H   0  0  0  0  0  0  0  0  0  0  0  0
   18.0101    2.7891   -3.5401 H   0  0  0  0  0  0  0  0  0  0  0  0
   18.6395    1.7510   -6.2389 H   0  0  0  0  0  0  0  0  0  0  0  0
   17.9992   -0.3393   -6.6900 H   0  0  0  0  0  0  0  0  0  0  0  0
   15.7199   -3.9066   -5.3438 H   0  0  0  0  0  0  0  0  0  0  0  0
   14.9262   -1.5975   -3.5238 H   0  0  0  0  0  0  0  0  0  0  0  0
   14.1768   -2.5670   -2.2658 H   0  0  0  0  0  0  0  0  0  0  0  0
   13.9099   -2.9762   -3.9581 H   0  0  0  0  0  0  0  0  0  0  0  0
   14.9243   -4.8370   -1.7315 H   0  0  0  0  0  0  0  0  0  0  0  0
   16.2345   -5.6253   -2.5938 H   0  0  0  0  0  0  0  0  0  0  0  0
   14.6809   -5.3602   -3.3913 H   0  0  0  0  0  0  0  0  0  0  0  0
   16.4704   -2.9981   -1.1805 H   0  0  0  0  0  0  0  0  0  0  0  0
   17.1705   -1.9569   -2.4105 H   0  0  0  0  0  0  0  0  0  0  0  0
   17.8061   -3.5833   -2.1645 H   0  0  0  0  0  0  0  0  0  0  0  0
   18.4364   -4.5677   -4.4693 H   0  0  0  0  0  0  0  0  0  0  0  0
   18.3906   -7.4453   -6.3061 H   0  0  0  0  0  0  0  0  0  0  0  0
   18.3043   -7.6603   -4.5379 H   0  0  0  0  0  0  0  0  0  0  0  0
   19.3285   -6.3797   -5.2453 H   0  0  0  0  0  0  0  0  0  0  0  0
   15.3846   -2.8012   -7.0789 H   0  0  0  0  0  0  0  0  0  0  0  0
   14.4217   -1.6496   -6.0927 H   0  0  0  0  0  0  0  0  0  0  0  0
   14.3786   -0.5255   -8.2163 H   0  0  0  0  0  0  0  0  0  0  0  0
   17.1048   -1.1893   -8.6508 H   0  0  0  0  0  0  0  0  0  0  0  0
   15.2881    1.0517   -6.6910 H   0  0  0  0  0  0  0  0  0  0  0  0
   16.5394    1.0827   -7.9470 H   0  0  0  0  0  0  0  0  0  0  0  0
  1 34  1  0  0  0  0
  1 12  1  0  0  0  0
  1  2  2  0  0  0  0
  2  3  1  0  0  0  0
  2 13  1  0  0  0  0
  3  4  2  0  0  0  0
  3 35  1  0  0  0  0
  4  5  1  0  0  0  0
  4 36  1  0  0  0  0
  5 12  2  0  0  0  0
  5  6  1  0  0  0  0
  6  7  2  0  0  0  0
  6 11  1  0  0  0  0
  7  8  1  0  0  0  0
  7  9  1  0  0  0  0
  8 37  1  0  0  0  0
  8 38  1  0  0  0  0
  8 39  1  0  0  0  0
  9 10  2  0  0  0  0
 10 40  1  0  0  0  0
 10 11  1  0  0  0  0
 12 41  1  0  0  0  0
 13 42  1  0  0  0  0
 13 43  1  0  0  0  0
 13 14  1  0  0  0  0
 14 44  1  0  0  0  0
 14 15  1  0  0  0  0
 15 16  2  0  0  0  0
 17 15  1  0  0  0  0
 17 45  1  0  0  0  0
 17 33  1  0  0  0  0
 17 18  1  0  0  0  0
 18 30  1  0  0  0  0
 18 19  1  0  0  0  0
 19 20  2  0  0  0  0
 21 19  1  0  0  0  0
 21 46  1  0  0  0  0
 21 22  1  0  0  0  0
 21 26  1  0  0  0  0
 22 23  1  0  0  0  0
 22 24  1  0  0  0  0
 22 25  1  0  0  0  0
 23 47  1  0  0  0  0
 23 48  1  0  0  0  0
 23 49  1  0  0  0  0
 24 50  1  0  0  0  0
 24 51  1  0  0  0  0
 24 52  1  0  0  0  0
 25 53  1  0  0  0  0
 25 54  1  0  0  0  0
 25 55  1  0  0  0  0
 26 56  1  0  0  0  0
 26 27  1  0  0  0  0
 27 28  2  0  0  0  0
 27 29  1  0  0  0  0
 29 57  1  0  0  0  0
 29 58  1  0  0  0  0
 29 59  1  0  0  0  0
 31 30  1  0  0  0  0
 30 60  1  0  0  0  0
 30 61  1  0  0  0  0
 31 33  1  0  0  0  0
 31 62  1  0  0  0  0
 31 32  1  0  0  0  0
 32 63  1  0  0  0  0
 33 64  1  0  0  0  0
 33 65  1  0  0  0  0
M  ZZC   1 c1
M  ZZC   2 c2
M  ZZC   3 c3
M  ZZC   4 c4
M  ZZC   5 c5
M  ZZC   6 c6
M  ZZC   7 c7
M  ZZC   8 c8
M  ZZC   9 n1
M  ZZC  10 c9
M  ZZC  11 s1
M  ZZC  12 c10
M  ZZC  13 c11
M  ZZC  14 n2
M  ZZC  15 c12
M  ZZC  16 o1
M  ZZC  17 c13
M  ZZC  18 n3
M  ZZC  19 c14
M  ZZC  20 o2
M  ZZC  21 c15
M  ZZC  22 c16
M  ZZC  23 c17
M  ZZC  24 c18
M  ZZC  25 c19
M  ZZC  26 n4
M  ZZC  27 c20
M  ZZC  28 o3
M  ZZC  29 c21
M  ZZC  30 c22
M  ZZC  31 c23
M  ZZC  32 o4
M  ZZC  33 c24
M  ZZC  34 h11
M  ZZC  35 h31
M  ZZC  36 h41
M  ZZC  37 h81
M  ZZC  38 h82
M  ZZC  39 h83
M  ZZC  40 h91
M  ZZC  41 h101
M  ZZC  42 h111
M  ZZC  43 h112
M  ZZC  44 h21
M  ZZC  45 h131
M  ZZC  46 h151
M  ZZC  47 h171
M  ZZC  48 h172
M  ZZC  49 h173
M  ZZC  50 h181
M  ZZC  51 h182
M  ZZC  52 h183
M  ZZC  53 h191
M  ZZC  54 h192
M  ZZC  55 h193
M  ZZC  56 h01
M  ZZC  57 h211
M  ZZC  58 h212
M  ZZC  59 h213
M  ZZC  60 h221
M  ZZC  61 h222
M  ZZC  62 h231
M  ZZC  63 h02
M  ZZC  64 h241
M  ZZC  65 h242
M  ZZM   1 37
M  ZZI   1 125
M  ZZM   2 37
M  ZZI   2 124
M  ZZM   3 37
M  ZZI   3 125
M  ZZM   4 37
M  ZZI   4 125
M  ZZM   5 37
M  ZZI   5 124
M  ZZM   6 63
M  ZZI   6 104
M  ZZM   7 64
M  ZZI   7 105
M  ZZM   8 1
M  ZZI   8 111
M  ZZM   9 66
M  ZZI   9 222
M  ZZM  10 63
M  ZZI  10 104
M  ZZM  11 44
M  ZZI  11 248
M  ZZM  12 37
M  ZZI  12 125
M  ZZM  13 1
M  ZZI  13 112
M  ZZM  14 10
M  ZZI  14 211
M  ZZM  15 3
M  ZZI  15 121
M  ZZM  16 7
M  ZZI  16 81
M  ZZM  17 1
M  ZZI  17 113
M  ZZM  18 10
M  ZZI  18 192
M  ZZM  19 3
M  ZZI  19 121
M  ZZM  20 7
M  ZZI  20 81
M  ZZM  21 1
M  ZZI  21 113
M  ZZM  22 1
M  ZZI  22 110
M  ZZM  23 1
M  ZZI  23 111
M  ZZM  24 1
M  ZZI  24 111
M  ZZM  25 1
M  ZZI  25 111
M  ZZM  26 10
M  ZZI  26 211
M  ZZM  27 3
M  ZZI  27 121
M  ZZM  28 7
M  ZZI  28 81
M  ZZM  29 1
M  ZZI  29 111
M  ZZM  30 1
M  ZZI  30 112
M  ZZM  31 1
M  ZZI  31 113
M  ZZM  32 6
M  ZZI  32 60
M  ZZM  33 1
M  ZZI  33 112
M  ZZM  34 5
M  ZZI  34 1
M  ZZM  35 5
M  ZZI  35 1
M  ZZM  36 5
M  ZZI  36 1
M  ZZM  37 5
M  ZZI  37 1
M  ZZM  38 5
M  ZZI  38 1
M  ZZM  39 5
M  ZZI  39 1
M  ZZM  40 5
M  ZZI  40 1
M  ZZM  41 5
M  ZZI  41 1
M  ZZM  42 5
M  ZZI  42 1
M  ZZM  43 5
M  ZZI  43 1
M  ZZM  44 28
M  ZZI  44 11
M  ZZM  45 5
M  ZZI  45 1
M  ZZM  46 5
M  ZZI  46 1
M  ZZM  47 5
M  ZZI  47 1
M  ZZM  48 5
M  ZZI  48 1
M  ZZM  49 5
M  ZZI  49 1
M  ZZM  50 5
M  ZZI  50 1
M  ZZM  51 5
M  ZZI  51 1
M  ZZM  52 5
M  ZZI  52 1
M  ZZM  53 5
M  ZZI  53 1
M  ZZM  54 5
M  ZZI  54 1
M  ZZM  55 5
M  ZZI  55 1
M  ZZM  56 28
M  ZZI  56 11
M  ZZM  57 5
M  ZZI  57 1
M  ZZM  58 5
M  ZZI  58 1
M  ZZM  59 5
M  ZZI  59 1
M  ZZM  60 5
M  ZZI  60 1
M  ZZM  61 5
M  ZZI  61 1
M  ZZM  62 5
M  ZZI  62 1
M  ZZM  63 21
M  ZZI  63 20
M  ZZM  64 5
M  ZZI  64 1
M  ZZM  65 5
M  ZZI  65 1
M  END
> <IX>
1

> <NAME>
VHL_5VBP_17.pdb

> <Score>
-24.452752

> <Natom>
65

> <Nflex>
8

> <Hbond>
-7.791436

> <Hphob>
-6.414939

> <VwInt>
-30.283627

> <Dsolv>
21.261255

> <SolEl>
9.972299

> <Eintl>
4.189264

> <RecConf>
ND

> <projPath>
VHL_maps/

> <NAME_>
VHL_5VBP_17.pdb

$$$$
