VHL_5G0J_14.pdb
  MOLSOFT 04032206413D

 65 67  0  0  1  0  0  0  0  0999 V2000
   18.1163   -6.6602   -5.1186 C   0  0  0  0  0  0  0  0  0  0  0  0
   16.9024   -5.7845   -4.9694 C   0  0  0  0  0  0  0  0  0  0  0  0
   15.8180   -6.1419   -5.3959 O   0  0  0  0  0  0  0  0  0  0  0  0
   17.1446   -4.6076   -4.2885 N   0  0  0  0  0  0  0  0  0  0  0  0
   16.1351   -3.5705   -4.0189 C   0  0  1  0  0  0  0  0  0  0  0  0
   15.8907   -3.3823   -2.4922 C   0  0  0  0  0  0  0  0  0  0  0  0
   17.1541   -2.9228   -1.7504 C   0  0  0  0  0  0  0  0  0  0  0  0
   15.4235   -4.7239   -1.9148 C   0  0  0  0  0  0  0  0  0  0  0  0
   14.7859   -2.3629   -2.1907 C   0  0  0  0  0  0  0  0  0  0  0  0
   16.6287   -2.3282   -4.7904 C   0  0  0  0  0  0  0  0  0  0  0  0
   17.8233   -2.0588   -4.8433 O   0  0  0  0  0  0  0  0  0  0  0  0
   15.6764   -1.5560   -5.4634 N   0  0  0  0  0  0  0  0  0  0  0  0
   16.0700   -0.6438   -6.5270 C   0  0  2  0  0  0  0  0  0  0  0  0
   16.4516    0.7483   -6.0166 C   0  0  0  0  0  0  0  0  0  0  0  0
   15.9305    1.2665   -5.0383 O   0  0  0  0  0  0  0  0  0  0  0  0
   17.3822    1.3843   -6.8172 N   0  0  0  0  0  0  0  0  0  0  0  0
   17.8324    2.7400   -6.5474 C   0  0  0  0  0  0  0  0  0  0  0  0
   19.2428    3.0195   -7.0095 C   0  0  0  0  0  0  0  0  0  0  0  0
   19.6580    4.3248   -7.2648 C   0  0  0  0  0  0  0  0  0  0  0  0
   20.9675    4.6030   -7.6321 C   0  0  0  0  0  0  0  0  0  0  0  0
   21.8985    3.5789   -7.7525 C   0  0  0  0  0  0  0  0  0  0  0  0
   23.2833    3.8388   -8.1121 C   0  0  0  0  0  0  0  0  0  0  0  0
   24.3522    4.2563   -7.3323 C   0  0  0  0  0  0  0  0  0  0  0  0
   24.3232    4.5864   -5.8895 C   0  0  0  0  0  0  0  0  0  0  0  0
   25.5612    4.3368   -7.9942 N   0  0  0  0  0  0  0  0  0  0  0  0
   25.3979    4.0057   -9.2553 C   0  0  0  0  0  0  0  0  0  0  0  0
   23.8114    3.5912   -9.7281 S   0  0  0  0  0  0  0  0  0  0  0  0
   21.4851    2.2814   -7.4974 C   0  0  0  0  0  0  0  0  0  0  0  0
   20.1849    2.0059   -7.1281 C   0  0  0  0  0  0  0  0  0  0  0  0
   14.8344   -0.5726   -7.4100 C   0  0  0  0  0  0  0  0  0  0  0  0
   13.6813   -0.6920   -6.4246 C   0  0  1  0  0  0  0  0  0  0  0  0
   12.5391   -1.3058   -7.0159 O   0  0  0  0  0  0  0  0  0  0  0  0
   14.2301   -1.5831   -5.3235 C   0  0  0  0  0  0  0  0  0  0  0  0
   19.0225   -6.0603   -5.2452 H   0  0  0  0  0  0  0  0  0  0  0  0
   17.9993   -7.2964   -6.0011 H   0  0  0  0  0  0  0  0  0  0  0  0
   18.2109   -7.2922   -4.2325 H   0  0  0  0  0  0  0  0  0  0  0  0
   18.1050   -4.4017   -4.0377 H   0  0  0  0  0  0  0  0  0  0  0  0
   15.2040   -3.9156   -4.4687 H   0  0  0  0  0  0  0  0  0  0  0  0
   16.9758   -2.8376   -0.6736 H   0  0  0  0  0  0  0  0  0  0  0  0
   17.4982   -1.9446   -2.1000 H   0  0  0  0  0  0  0  0  0  0  0  0
   17.9759   -3.6247   -1.8794 H   0  0  0  0  0  0  0  0  0  0  0  0
   15.1682   -4.6265   -0.8569 H   0  0  0  0  0  0  0  0  0  0  0  0
   16.1925   -5.4934   -2.0041 H   0  0  0  0  0  0  0  0  0  0  0  0
   14.5330   -5.0958   -2.4314 H   0  0  0  0  0  0  0  0  0  0  0  0
   15.0663   -1.3589   -2.5263 H   0  0  0  0  0  0  0  0  0  0  0  0
   14.5908   -2.2920   -1.1164 H   0  0  0  0  0  0  0  0  0  0  0  0
   13.8542   -2.6122   -2.7059 H   0  0  0  0  0  0  0  0  0  0  0  0
   16.9184   -1.0666   -7.0751 H   0  0  0  0  0  0  0  0  0  0  0  0
   17.7742    0.8862   -7.6116 H   0  0  0  0  0  0  0  0  0  0  0  0
   17.1315    3.4033   -7.0659 H   0  0  0  0  0  0  0  0  0  0  0  0
   17.7559    2.9403   -5.4735 H   0  0  0  0  0  0  0  0  0  0  0  0
   18.9545    5.1471   -7.1711 H   0  0  0  0  0  0  0  0  0  0  0  0
   21.2585    5.6318   -7.8229 H   0  0  0  0  0  0  0  0  0  0  0  0
   25.2905    4.9730   -5.5563 H   0  0  0  0  0  0  0  0  0  0  0  0
   24.0897    3.7032   -5.2880 H   0  0  0  0  0  0  0  0  0  0  0  0
   23.5598    5.3401   -5.6827 H   0  0  0  0  0  0  0  0  0  0  0  0
   26.2158    3.9971   -9.9615 H   0  0  0  0  0  0  0  0  0  0  0  0
   22.1831    1.4582   -7.5865 H   0  0  0  0  0  0  0  0  0  0  0  0
   19.9155    0.9750   -6.9314 H   0  0  0  0  0  0  0  0  0  0  0  0
   14.7697    0.3423   -8.0084 H   0  0  0  0  0  0  0  0  0  0  0  0
   14.8228   -1.4181   -8.1064 H   0  0  0  0  0  0  0  0  0  0  0  0
   13.3893    0.2866   -6.0265 H   0  0  0  0  0  0  0  0  0  0  0  0
   12.1945   -0.7102   -7.7057 H   0  0  0  0  0  0  0  0  0  0  0  0
   13.8473   -2.6041   -5.3607 H   0  0  0  0  0  0  0  0  0  0  0  0
   13.9577   -1.1587   -4.3573 H   0  0  0  0  0  0  0  0  0  0  0  0
  1 34  1  0  0  0  0
  1 35  1  0  0  0  0
  1 36  1  0  0  0  0
  1  2  1  0  0  0  0
  2  3  2  0  0  0  0
  2  4  1  0  0  0  0
  4 37  1  0  0  0  0
  5  4  1  0  0  0  0
  5 38  1  0  0  0  0
  5  6  1  0  0  0  0
  5 10  1  0  0  0  0
  6  7  1  0  0  0  0
  6  8  1  0  0  0  0
  6  9  1  0  0  0  0
  7 39  1  0  0  0  0
  7 40  1  0  0  0  0
  7 41  1  0  0  0  0
  8 42  1  0  0  0  0
  8 43  1  0  0  0  0
  8 44  1  0  0  0  0
  9 45  1  0  0  0  0
  9 46  1  0  0  0  0
  9 47  1  0  0  0  0
 10 11  2  0  0  0  0
 10 12  1  0  0  0  0
 12 33  1  0  0  0  0
 13 12  1  0  0  0  0
 13 30  1  0  0  0  0
 13 48  1  0  0  0  0
 13 14  1  0  0  0  0
 14 15  2  0  0  0  0
 14 16  1  0  0  0  0
 16 49  1  0  0  0  0
 16 17  1  0  0  0  0
 17 50  1  0  0  0  0
 17 51  1  0  0  0  0
 17 18  1  0  0  0  0
 18 19  1  0  0  0  0
 18 29  2  0  0  0  0
 19 52  1  0  0  0  0
 19 20  2  0  0  0  0
 20 53  1  0  0  0  0
 20 21  1  0  0  0  0
 21 28  2  0  0  0  0
 21 22  1  0  0  0  0
 22 23  2  0  0  0  0
 22 27  1  0  0  0  0
 23 24  1  0  0  0  0
 23 25  1  0  0  0  0
 24 54  1  0  0  0  0
 24 55  1  0  0  0  0
 24 56  1  0  0  0  0
 25 26  2  0  0  0  0
 26 57  1  0  0  0  0
 26 27  1  0  0  0  0
 28 58  1  0  0  0  0
 28 29  1  0  0  0  0
 29 59  1  0  0  0  0
 31 30  1  0  0  0  0
 30 60  1  0  0  0  0
 30 61  1  0  0  0  0
 31 33  1  0  0  0  0
 31 62  1  0  0  0  0
 31 32  1  0  0  0  0
 32 63  1  0  0  0  0
 33 64  1  0  0  0  0
 33 65  1  0  0  0  0
M  ZZC   1 c1
M  ZZC   2 c2
M  ZZC   3 o1
M  ZZC   4 n1
M  ZZC   5 c3
M  ZZC   6 c4
M  ZZC   7 c5
M  ZZC   8 c6
M  ZZC   9 c7
M  ZZC  10 c8
M  ZZC  11 o2
M  ZZC  12 n2
M  ZZC  13 c9
M  ZZC  14 c10
M  ZZC  15 o3
M  ZZC  16 n3
M  ZZC  17 c11
M  ZZC  18 c12
M  ZZC  19 c13
M  ZZC  20 c14
M  ZZC  21 c15
M  ZZC  22 c16
M  ZZC  23 c17
M  ZZC  24 c18
M  ZZC  25 n4
M  ZZC  26 c19
M  ZZC  27 s1
M  ZZC  28 c20
M  ZZC  29 c21
M  ZZC  30 c22
M  ZZC  31 c23
M  ZZC  32 o4
M  ZZC  33 c24
M  ZZC  34 h11
M  ZZC  35 h12
M  ZZC  36 h13
M  ZZC  37 h01
M  ZZC  38 h31
M  ZZC  39 h51
M  ZZC  40 h52
M  ZZC  41 h53
M  ZZC  42 h61
M  ZZC  43 h62
M  ZZC  44 h63
M  ZZC  45 h71
M  ZZC  46 h72
M  ZZC  47 h73
M  ZZC  48 h91
M  ZZC  49 h02
M  ZZC  50 h111
M  ZZC  51 h112
M  ZZC  52 h131
M  ZZC  53 h141
M  ZZC  54 h181
M  ZZC  55 h182
M  ZZC  56 h183
M  ZZC  57 h191
M  ZZC  58 h201
M  ZZC  59 h211
M  ZZC  60 h221
M  ZZC  61 h222
M  ZZC  62 h231
M  ZZC  63 h41
M  ZZC  64 h241
M  ZZC  65 h242
M  ZZM   1 1
M  ZZI   1 111
M  ZZM   2 3
M  ZZI   2 121
M  ZZM   3 7
M  ZZI   3 81
M  ZZM   4 10
M  ZZI   4 211
M  ZZM   5 1
M  ZZI   5 113
M  ZZM   6 1
M  ZZI   6 110
M  ZZM   7 1
M  ZZI   7 111
M  ZZM   8 1
M  ZZI   8 111
M  ZZM   9 1
M  ZZI   9 111
M  ZZM  10 3
M  ZZI  10 121
M  ZZM  11 7
M  ZZI  11 81
M  ZZM  12 10
M  ZZI  12 192
M  ZZM  13 1
M  ZZI  13 113
M  ZZM  14 3
M  ZZI  14 121
M  ZZM  15 7
M  ZZI  15 81
M  ZZM  16 10
M  ZZI  16 211
M  ZZM  17 1
M  ZZI  17 112
M  ZZM  18 37
M  ZZI  18 124
M  ZZM  19 37
M  ZZI  19 125
M  ZZM  20 37
M  ZZI  20 125
M  ZZM  21 37
M  ZZI  21 124
M  ZZM  22 63
M  ZZI  22 104
M  ZZM  23 64
M  ZZI  23 105
M  ZZM  24 1
M  ZZI  24 111
M  ZZM  25 66
M  ZZI  25 222
M  ZZM  26 63
M  ZZI  26 104
M  ZZM  27 44
M  ZZI  27 248
M  ZZM  28 37
M  ZZI  28 125
M  ZZM  29 37
M  ZZI  29 125
M  ZZM  30 1
M  ZZI  30 112
M  ZZM  31 1
M  ZZI  31 113
M  ZZM  32 6
M  ZZI  32 60
M  ZZM  33 1
M  ZZI  33 112
M  ZZM  34 5
M  ZZI  34 1
M  ZZM  35 5
M  ZZI  35 1
M  ZZM  36 5
M  ZZI  36 1
M  ZZM  37 28
M  ZZI  37 11
M  ZZM  38 5
M  ZZI  38 1
M  ZZM  39 5
M  ZZI  39 1
M  ZZM  40 5
M  ZZI  40 1
M  ZZM  41 5
M  ZZI  41 1
M  ZZM  42 5
M  ZZI  42 1
M  ZZM  43 5
M  ZZI  43 1
M  ZZM  44 5
M  ZZI  44 1
M  ZZM  45 5
M  ZZI  45 1
M  ZZM  46 5
M  ZZI  46 1
M  ZZM  47 5
M  ZZI  47 1
M  ZZM  48 5
M  ZZI  48 1
M  ZZM  49 28
M  ZZI  49 11
M  ZZM  50 5
M  ZZI  50 1
M  ZZM  51 5
M  ZZI  51 1
M  ZZM  52 5
M  ZZI  52 1
M  ZZM  53 5
M  ZZI  53 1
M  ZZM  54 5
M  ZZI  54 1
M  ZZM  55 5
M  ZZI  55 1
M  ZZM  56 5
M  ZZI  56 1
M  ZZM  57 5
M  ZZI  57 1
M  ZZM  58 5
M  ZZI  58 1
M  ZZM  59 5
M  ZZI  59 1
M  ZZM  60 5
M  ZZI  60 1
M  ZZM  61 5
M  ZZI  61 1
M  ZZM  62 5
M  ZZI  62 1
M  ZZM  63 21
M  ZZI  63 20
M  ZZM  64 5
M  ZZI  64 1
M  ZZM  65 5
M  ZZI  65 1
M  END
> <IX>
1

> <NAME>
VHL_5G0J_14.pdb

> <Score>
-11.619235

> <Natom>
65

> <Nflex>
8

> <Hbond>
-4.955532

> <Hphob>
-6.49569

> <VwInt>
-28.087038

> <Dsolv>
16.842477

> <SolEl>
16.711698

> <Eintl>
8.159721

> <RecConf>
ND

> <projPath>
VHL_maps/

> <NAME_>
VHL_5G0J_14.pdb

$$$$
