VHL_2HYY_1.pdb
  MOLSOFT 04032206383D

 65 67  0  0  1  0  0  0  0  0999 V2000
   16.0501   -6.2308   -5.5533 O   0  0  0  0  0  0  0  0  0  0  0  0
   17.1641   -5.8449   -5.2384 C   0  0  0  0  0  0  0  0  0  0  0  0
   17.4603   -4.5778   -4.7695 N   0  0  0  0  0  0  0  0  0  0  0  0
   16.4824   -3.4923   -4.6209 C   0  0  1  0  0  0  0  0  0  0  0  0
   15.9163   -3.3668   -3.1704 C   0  0  0  0  0  0  0  0  0  0  0  0
   16.9733   -2.8551   -2.1797 C   0  0  0  0  0  0  0  0  0  0  0  0
   14.7197   -2.4026   -3.1448 C   0  0  0  0  0  0  0  0  0  0  0  0
   15.4116   -4.7287   -2.6635 C   0  0  0  0  0  0  0  0  0  0  0  0
   17.1650   -2.2054   -5.1350 C   0  0  0  0  0  0  0  0  0  0  0  0
   18.3424   -1.9815   -4.8936 O   0  0  0  0  0  0  0  0  0  0  0  0
   16.3942   -1.2756   -5.8389 N   0  0  0  0  0  0  0  0  0  0  0  0
   16.9702   -0.0100   -6.2965 C   0  0  2  0  0  0  0  0  0  0  0  0
   17.4109    1.0010   -5.2372 C   0  0  0  0  0  0  0  0  0  0  0  0
   17.3276    0.8125   -4.0319 O   0  0  0  0  0  0  0  0  0  0  0  0
   17.9941    2.1158   -5.8139 N   0  0  0  0  0  0  0  0  0  0  0  0
   18.8455    3.0434   -5.1008 C   0  0  0  0  0  0  0  0  0  0  0  0
   20.1424    3.2660   -5.8438 C   0  0  0  0  0  0  0  0  0  0  0  0
   20.9192    4.3945   -5.5975 C   0  0  0  0  0  0  0  0  0  0  0  0
   22.1291    4.5876   -6.2499 C   0  0  0  0  0  0  0  0  0  0  0  0
   22.6027    3.6545   -7.1672 C   0  0  0  0  0  0  0  0  0  0  0  0
   23.8855    3.8195   -7.8425 C   0  0  0  0  0  0  0  0  0  0  0  0
   25.1536    4.0850   -7.3389 C   0  0  0  0  0  0  0  0  0  0  0  0
   25.5377    4.2799   -5.9215 C   0  0  0  0  0  0  0  0  0  0  0  0
   26.1561    4.1498   -8.2852 N   0  0  0  0  0  0  0  0  0  0  0  0
   25.6552    3.9399   -9.4808 C   0  0  0  0  0  0  0  0  0  0  0  0
   23.9746    3.6672   -9.5554 S   0  0  0  0  0  0  0  0  0  0  0  0
   21.8285    2.5279   -7.4041 C   0  0  0  0  0  0  0  0  0  0  0  0
   20.6277    2.3325   -6.7568 C   0  0  0  0  0  0  0  0  0  0  0  0
   15.9109    0.5874   -7.2162 C   0  0  0  0  0  0  0  0  0  0  0  0
   15.2280   -0.6357   -7.7791 C   0  0  1  0  0  0  0  0  0  0  0  0
   16.0109   -1.1758   -8.8580 O   0  0  0  0  0  0  0  0  0  0  0  0
   15.1998   -1.5940   -6.5988 C   0  0  0  0  0  0  0  0  0  0  0  0
   18.3566   -6.7588   -5.3243 C   0  0  0  0  0  0  0  0  0  0  0  0
   18.4223   -4.3723   -4.5292 H   0  0  0  0  0  0  0  0  0  0  0  0
   15.6597   -3.7362   -5.2802 H   0  0  0  0  0  0  0  0  0  0  0  0
   17.8616   -3.4896   -2.1786 H   0  0  0  0  0  0  0  0  0  0  0  0
   16.5857   -2.8412   -1.1558 H   0  0  0  0  0  0  0  0  0  0  0  0
   17.2955   -1.8357   -2.4117 H   0  0  0  0  0  0  0  0  0  0  0  0
   14.2768   -2.3436   -2.1454 H   0  0  0  0  0  0  0  0  0  0  0  0
   13.9335   -2.7049   -3.8422 H   0  0  0  0  0  0  0  0  0  0  0  0
   15.0171   -1.3870   -3.4261 H   0  0  0  0  0  0  0  0  0  0  0  0
   14.6592   -5.1512   -3.3346 H   0  0  0  0  0  0  0  0  0  0  0  0
   14.9479   -4.6430   -1.6759 H   0  0  0  0  0  0  0  0  0  0  0  0
   16.2203   -5.4585   -2.5678 H   0  0  0  0  0  0  0  0  0  0  0  0
   17.8652   -0.2589   -6.8686 H   0  0  0  0  0  0  0  0  0  0  0  0
   17.8990    2.2675   -6.8114 H   0  0  0  0  0  0  0  0  0  0  0  0
   18.2890    3.9828   -5.0210 H   0  0  0  0  0  0  0  0  0  0  0  0
   19.0521    2.6645   -4.0942 H   0  0  0  0  0  0  0  0  0  0  0  0
   20.5836    5.1396   -4.8821 H   0  0  0  0  0  0  0  0  0  0  0  0
   22.7033    5.4833   -6.0330 H   0  0  0  0  0  0  0  0  0  0  0  0
   25.4017    5.3249   -5.6296 H   0  0  0  0  0  0  0  0  0  0  0  0
   26.5881    4.0179   -5.7623 H   0  0  0  0  0  0  0  0  0  0  0  0
   24.9388    3.6558   -5.2530 H   0  0  0  0  0  0  0  0  0  0  0  0
   26.2651    3.9411  -10.3729 H   0  0  0  0  0  0  0  0  0  0  0  0
   22.1659    1.7605   -8.0904 H   0  0  0  0  0  0  0  0  0  0  0  0
   20.0820    1.4196   -6.9760 H   0  0  0  0  0  0  0  0  0  0  0  0
   15.1959    1.1928   -6.6466 H   0  0  0  0  0  0  0  0  0  0  0  0
   16.3491    1.2148   -7.9997 H   0  0  0  0  0  0  0  0  0  0  0  0
   14.2263   -0.4125   -8.1478 H   0  0  0  0  0  0  0  0  0  0  0  0
   16.9369   -1.2313   -8.5561 H   0  0  0  0  0  0  0  0  0  0  0  0
   15.2157   -2.6330   -6.9347 H   0  0  0  0  0  0  0  0  0  0  0  0
   14.3340   -1.4116   -5.9543 H   0  0  0  0  0  0  0  0  0  0  0  0
   18.3434   -7.2767   -6.2874 H   0  0  0  0  0  0  0  0  0  0  0  0
   18.2990   -7.4944   -4.5181 H   0  0  0  0  0  0  0  0  0  0  0  0
   19.2973   -6.2067   -5.2439 H   0  0  0  0  0  0  0  0  0  0  0  0
  1  2  2  0  0  0  0
  2  3  1  0  0  0  0
  2 33  1  0  0  0  0
  4  3  1  0  0  0  0
  3 34  1  0  0  0  0
  4  5  1  0  0  0  0
  4 35  1  0  0  0  0
  4  9  1  0  0  0  0
  5  6  1  0  0  0  0
  5  7  1  0  0  0  0
  5  8  1  0  0  0  0
  6 36  1  0  0  0  0
  6 37  1  0  0  0  0
  6 38  1  0  0  0  0
  7 39  1  0  0  0  0
  7 40  1  0  0  0  0
  7 41  1  0  0  0  0
  8 42  1  0  0  0  0
  8 43  1  0  0  0  0
  8 44  1  0  0  0  0
  9 10  2  0  0  0  0
  9 11  1  0  0  0  0
 11 32  1  0  0  0  0
 12 11  1  0  0  0  0
 12 29  1  0  0  0  0
 12 45  1  0  0  0  0
 12 13  1  0  0  0  0
 13 14  2  0  0  0  0
 13 15  1  0  0  0  0
 15 46  1  0  0  0  0
 15 16  1  0  0  0  0
 16 47  1  0  0  0  0
 16 48  1  0  0  0  0
 16 17  1  0  0  0  0
 17 18  1  0  0  0  0
 17 28  2  0  0  0  0
 18 49  1  0  0  0  0
 18 19  2  0  0  0  0
 19 50  1  0  0  0  0
 19 20  1  0  0  0  0
 20 27  2  0  0  0  0
 20 21  1  0  0  0  0
 21 22  2  0  0  0  0
 21 26  1  0  0  0  0
 22 23  1  0  0  0  0
 22 24  1  0  0  0  0
 23 51  1  0  0  0  0
 23 52  1  0  0  0  0
 23 53  1  0  0  0  0
 24 25  2  0  0  0  0
 25 54  1  0  0  0  0
 25 26  1  0  0  0  0
 27 55  1  0  0  0  0
 27 28  1  0  0  0  0
 28 56  1  0  0  0  0
 30 29  1  0  0  0  0
 29 57  1  0  0  0  0
 29 58  1  0  0  0  0
 30 32  1  0  0  0  0
 30 59  1  0  0  0  0
 30 31  1  0  0  0  0
 31 60  1  0  0  0  0
 32 61  1  0  0  0  0
 32 62  1  0  0  0  0
 33 63  1  0  0  0  0
 33 64  1  0  0  0  0
 33 65  1  0  0  0  0
M  ZZC   1 o1
M  ZZC   2 c1
M  ZZC   3 n1
M  ZZC   4 c2
M  ZZC   5 c3
M  ZZC   6 c4
M  ZZC   7 c5
M  ZZC   8 c6
M  ZZC   9 c7
M  ZZC  10 o2
M  ZZC  11 n2
M  ZZC  12 c8
M  ZZC  13 c9
M  ZZC  14 o3
M  ZZC  15 n3
M  ZZC  16 c10
M  ZZC  17 c11
M  ZZC  18 c12
M  ZZC  19 c13
M  ZZC  20 c14
M  ZZC  21 c15
M  ZZC  22 c16
M  ZZC  23 c17
M  ZZC  24 n4
M  ZZC  25 c18
M  ZZC  26 s1
M  ZZC  27 c19
M  ZZC  28 c20
M  ZZC  29 c21
M  ZZC  30 c22
M  ZZC  31 o4
M  ZZC  32 c23
M  ZZC  33 c24
M  ZZC  34 h11
M  ZZC  35 h21
M  ZZC  36 h41
M  ZZC  37 h42
M  ZZC  38 h43
M  ZZC  39 h51
M  ZZC  40 h52
M  ZZC  41 h53
M  ZZC  42 h61
M  ZZC  43 h62
M  ZZC  44 h63
M  ZZC  45 h81
M  ZZC  46 h31
M  ZZC  47 h101
M  ZZC  48 h102
M  ZZC  49 h121
M  ZZC  50 h131
M  ZZC  51 h171
M  ZZC  52 h172
M  ZZC  53 h173
M  ZZC  54 h181
M  ZZC  55 h191
M  ZZC  56 h201
M  ZZC  57 h211
M  ZZC  58 h212
M  ZZC  59 h221
M  ZZC  60 h01
M  ZZC  61 h231
M  ZZC  62 h232
M  ZZC  63 h241
M  ZZC  64 h242
M  ZZC  65 h243
M  ZZM   1 7
M  ZZI   1 81
M  ZZM   2 3
M  ZZI   2 121
M  ZZM   3 10
M  ZZI   3 211
M  ZZM   4 1
M  ZZI   4 113
M  ZZM   5 1
M  ZZI   5 110
M  ZZM   6 1
M  ZZI   6 111
M  ZZM   7 1
M  ZZI   7 111
M  ZZM   8 1
M  ZZI   8 111
M  ZZM   9 3
M  ZZI   9 121
M  ZZM  10 7
M  ZZI  10 81
M  ZZM  11 10
M  ZZI  11 192
M  ZZM  12 1
M  ZZI  12 113
M  ZZM  13 3
M  ZZI  13 121
M  ZZM  14 7
M  ZZI  14 81
M  ZZM  15 10
M  ZZI  15 211
M  ZZM  16 1
M  ZZI  16 112
M  ZZM  17 37
M  ZZI  17 124
M  ZZM  18 37
M  ZZI  18 125
M  ZZM  19 37
M  ZZI  19 125
M  ZZM  20 37
M  ZZI  20 124
M  ZZM  21 63
M  ZZI  21 104
M  ZZM  22 64
M  ZZI  22 105
M  ZZM  23 1
M  ZZI  23 111
M  ZZM  24 66
M  ZZI  24 222
M  ZZM  25 63
M  ZZI  25 104
M  ZZM  26 44
M  ZZI  26 248
M  ZZM  27 37
M  ZZI  27 125
M  ZZM  28 37
M  ZZI  28 125
M  ZZM  29 1
M  ZZI  29 112
M  ZZM  30 1
M  ZZI  30 113
M  ZZM  31 6
M  ZZI  31 60
M  ZZM  32 1
M  ZZI  32 112
M  ZZM  33 1
M  ZZI  33 111
M  ZZM  34 28
M  ZZI  34 11
M  ZZM  35 5
M  ZZI  35 1
M  ZZM  36 5
M  ZZI  36 1
M  ZZM  37 5
M  ZZI  37 1
M  ZZM  38 5
M  ZZI  38 1
M  ZZM  39 5
M  ZZI  39 1
M  ZZM  40 5
M  ZZI  40 1
M  ZZM  41 5
M  ZZI  41 1
M  ZZM  42 5
M  ZZI  42 1
M  ZZM  43 5
M  ZZI  43 1
M  ZZM  44 5
M  ZZI  44 1
M  ZZM  45 5
M  ZZI  45 1
M  ZZM  46 28
M  ZZI  46 11
M  ZZM  47 5
M  ZZI  47 1
M  ZZM  48 5
M  ZZI  48 1
M  ZZM  49 5
M  ZZI  49 1
M  ZZM  50 5
M  ZZI  50 1
M  ZZM  51 5
M  ZZI  51 1
M  ZZM  52 5
M  ZZI  52 1
M  ZZM  53 5
M  ZZI  53 1
M  ZZM  54 5
M  ZZI  54 1
M  ZZM  55 5
M  ZZI  55 1
M  ZZM  56 5
M  ZZI  56 1
M  ZZM  57 5
M  ZZI  57 1
M  ZZM  58 5
M  ZZI  58 1
M  ZZM  59 5
M  ZZI  59 1
M  ZZM  60 21
M  ZZI  60 20
M  ZZM  61 5
M  ZZI  61 1
M  ZZM  62 5
M  ZZI  62 1
M  ZZM  63 5
M  ZZI  63 1
M  ZZM  64 5
M  ZZI  64 1
M  ZZM  65 5
M  ZZI  65 1
M  END
> <IX>
1

> <NAME>
VHL_2HYY_1.pdb

> <Score>
-23.756018

> <Natom>
65

> <Nflex>
8

> <Hbond>
-6.427863

> <Hphob>
-6.123562

> <VwInt>
-31.388935

> <Dsolv>
16.256079

> <SolEl>
9.629793

> <Eintl>
7.750788

> <RecConf>
ND

> <projPath>
VHL_maps/

> <NAME_>
VHL_2HYY_1.pdb

$$$$
