VHL_5G0I_9.pdb
  MOLSOFT 04032206393D

 65 67  0  0  1  0  0  0  0  0999 V2000
   18.1142   -6.6574   -5.1175 C   0  0  0  0  0  0  0  0  0  0  0  0
   16.9008   -5.7815   -4.9659 C   0  0  0  0  0  0  0  0  0  0  0  0
   15.8161   -6.1368   -5.3933 O   0  0  0  0  0  0  0  0  0  0  0  0
   17.1438   -4.6062   -4.2826 N   0  0  0  0  0  0  0  0  0  0  0  0
   16.1354   -3.5674   -4.0147 C   0  0  1  0  0  0  0  0  0  0  0  0
   15.8935   -3.3746   -2.4882 C   0  0  0  0  0  0  0  0  0  0  0  0
   14.7892   -2.3543   -2.1884 C   0  0  0  0  0  0  0  0  0  0  0  0
   15.4269   -4.7141   -1.9057 C   0  0  0  0  0  0  0  0  0  0  0  0
   17.1583   -2.9136   -1.7496 C   0  0  0  0  0  0  0  0  0  0  0  0
   16.6287   -2.3272   -4.7899 C   0  0  0  0  0  0  0  0  0  0  0  0
   17.8233   -2.0580   -4.8442 O   0  0  0  0  0  0  0  0  0  0  0  0
   15.6760   -1.5566   -5.4641 N   0  0  0  0  0  0  0  0  0  0  0  0
   16.0688   -0.6450   -6.5283 C   0  0  2  0  0  0  0  0  0  0  0  0
   16.4503    0.7473   -6.0183 C   0  0  0  0  0  0  0  0  0  0  0  0
   15.9284    1.2659   -5.0406 O   0  0  0  0  0  0  0  0  0  0  0  0
   17.3813    1.3829   -6.8188 N   0  0  0  0  0  0  0  0  0  0  0  0
   17.8307    2.7390   -6.5500 C   0  0  0  0  0  0  0  0  0  0  0  0
   19.2412    3.0190   -7.0112 C   0  0  0  0  0  0  0  0  0  0  0  0
   20.1839    2.0057   -7.1284 C   0  0  0  0  0  0  0  0  0  0  0  0
   21.4842    2.2816   -7.4966 C   0  0  0  0  0  0  0  0  0  0  0  0
   21.8973    3.5793   -7.7518 C   0  0  0  0  0  0  0  0  0  0  0  0
   23.2825    3.8402   -8.1088 C   0  0  0  0  0  0  0  0  0  0  0  0
   24.3489    4.2603   -7.3270 C   0  0  0  0  0  0  0  0  0  0  0  0
   24.3159    4.5922   -5.8846 C   0  0  0  0  0  0  0  0  0  0  0  0
   25.5594    4.3412   -7.9858 N   0  0  0  0  0  0  0  0  0  0  0  0
   25.3997    4.0079   -9.2468 C   0  0  0  0  0  0  0  0  0  0  0  0
   23.8150    3.5903   -9.7230 S   0  0  0  0  0  0  0  0  0  0  0  0
   20.9657    4.6031   -7.6326 C   0  0  0  0  0  0  0  0  0  0  0  0
   19.6560    4.3245   -7.2664 C   0  0  0  0  0  0  0  0  0  0  0  0
   14.8326   -0.5742   -7.4106 C   0  0  0  0  0  0  0  0  0  0  0  0
   13.6797   -0.6938   -6.4250 C   0  0  1  0  0  0  0  0  0  0  0  0
   12.5378   -1.3094   -7.0151 O   0  0  0  0  0  0  0  0  0  0  0  0
   14.2297   -1.5839   -5.3235 C   0  0  0  0  0  0  0  0  0  0  0  0
   19.0186   -6.0574   -5.2573 H   0  0  0  0  0  0  0  0  0  0  0  0
   17.9906   -7.3018   -5.9931 H   0  0  0  0  0  0  0  0  0  0  0  0
   18.2168   -7.2816   -4.2269 H   0  0  0  0  0  0  0  0  0  0  0  0
   18.1046   -4.4012   -4.0323 H   0  0  0  0  0  0  0  0  0  0  0  0
   15.2034   -3.9128   -4.4622 H   0  0  0  0  0  0  0  0  0  0  0  0
   15.0722   -1.3468   -2.5057 H   0  0  0  0  0  0  0  0  0  0  0  0
   14.5830   -2.2936   -1.1146 H   0  0  0  0  0  0  0  0  0  0  0  0
   13.8480   -2.6304   -2.6733 H   0  0  0  0  0  0  0  0  0  0  0  0
   15.1725   -4.6134   -0.8479 H   0  0  0  0  0  0  0  0  0  0  0  0
   16.1960   -5.4837   -1.9928 H   0  0  0  0  0  0  0  0  0  0  0  0
   14.5361   -5.0880   -2.4204 H   0  0  0  0  0  0  0  0  0  0  0  0
   16.9812   -2.8243   -0.6729 H   0  0  0  0  0  0  0  0  0  0  0  0
   17.5032   -1.9372   -2.1035 H   0  0  0  0  0  0  0  0  0  0  0  0
   17.9791   -3.6171   -1.8764 H   0  0  0  0  0  0  0  0  0  0  0  0
   16.9172   -1.0672   -7.0768 H   0  0  0  0  0  0  0  0  0  0  0  0
   17.7743    0.8844   -7.6124 H   0  0  0  0  0  0  0  0  0  0  0  0
   17.1298    3.4015   -7.0695 H   0  0  0  0  0  0  0  0  0  0  0  0
   17.7534    2.9403   -5.4762 H   0  0  0  0  0  0  0  0  0  0  0  0
   19.9145    0.9748   -6.9316 H   0  0  0  0  0  0  0  0  0  0  0  0
   22.1825    1.4586   -7.5847 H   0  0  0  0  0  0  0  0  0  0  0  0
   25.2741    5.0028   -5.5534 H   0  0  0  0  0  0  0  0  0  0  0  0
   24.1142    3.6986   -5.2892 H   0  0  0  0  0  0  0  0  0  0  0  0
   23.5418    5.3344   -5.6699 H   0  0  0  0  0  0  0  0  0  0  0  0
   26.2193    3.9993   -9.9510 H   0  0  0  0  0  0  0  0  0  0  0  0
   21.2565    5.6319   -7.8234 H   0  0  0  0  0  0  0  0  0  0  0  0
   18.9525    5.1469   -7.1735 H   0  0  0  0  0  0  0  0  0  0  0  0
   14.7676    0.3404   -8.0093 H   0  0  0  0  0  0  0  0  0  0  0  0
   14.8212   -1.4202   -8.1066 H   0  0  0  0  0  0  0  0  0  0  0  0
   13.3872    0.2847   -6.0271 H   0  0  0  0  0  0  0  0  0  0  0  0
   12.1924   -0.7151   -7.7057 H   0  0  0  0  0  0  0  0  0  0  0  0
   13.8474   -2.6052   -5.3600 H   0  0  0  0  0  0  0  0  0  0  0  0
   13.9575   -1.1588   -4.3575 H   0  0  0  0  0  0  0  0  0  0  0  0
  1 34  1  0  0  0  0
  1 35  1  0  0  0  0
  1 36  1  0  0  0  0
  1  2  1  0  0  0  0
  2  3  2  0  0  0  0
  2  4  1  0  0  0  0
  4 37  1  0  0  0  0
  5  4  1  0  0  0  0
  5 38  1  0  0  0  0
  5  6  1  0  0  0  0
  5 10  1  0  0  0  0
  6  7  1  0  0  0  0
  6  8  1  0  0  0  0
  6  9  1  0  0  0  0
  7 39  1  0  0  0  0
  7 40  1  0  0  0  0
  7 41  1  0  0  0  0
  8 42  1  0  0  0  0
  8 43  1  0  0  0  0
  8 44  1  0  0  0  0
  9 45  1  0  0  0  0
  9 46  1  0  0  0  0
  9 47  1  0  0  0  0
 10 11  2  0  0  0  0
 10 12  1  0  0  0  0
 12 33  1  0  0  0  0
 13 12  1  0  0  0  0
 13 30  1  0  0  0  0
 13 48  1  0  0  0  0
 13 14  1  0  0  0  0
 14 15  2  0  0  0  0
 14 16  1  0  0  0  0
 16 49  1  0  0  0  0
 16 17  1  0  0  0  0
 17 50  1  0  0  0  0
 17 51  1  0  0  0  0
 17 18  1  0  0  0  0
 18 19  1  0  0  0  0
 18 29  2  0  0  0  0
 19 52  1  0  0  0  0
 19 20  2  0  0  0  0
 20 53  1  0  0  0  0
 20 21  1  0  0  0  0
 21 28  2  0  0  0  0
 21 22  1  0  0  0  0
 22 23  2  0  0  0  0
 22 27  1  0  0  0  0
 23 24  1  0  0  0  0
 23 25  1  0  0  0  0
 24 54  1  0  0  0  0
 24 55  1  0  0  0  0
 24 56  1  0  0  0  0
 25 26  2  0  0  0  0
 26 57  1  0  0  0  0
 26 27  1  0  0  0  0
 28 58  1  0  0  0  0
 28 29  1  0  0  0  0
 29 59  1  0  0  0  0
 31 30  1  0  0  0  0
 30 60  1  0  0  0  0
 30 61  1  0  0  0  0
 31 33  1  0  0  0  0
 31 62  1  0  0  0  0
 31 32  1  0  0  0  0
 32 63  1  0  0  0  0
 33 64  1  0  0  0  0
 33 65  1  0  0  0  0
M  ZZC   1 c1
M  ZZC   2 c2
M  ZZC   3 o1
M  ZZC   4 n1
M  ZZC   5 c3
M  ZZC   6 c4
M  ZZC   7 c5
M  ZZC   8 c6
M  ZZC   9 c7
M  ZZC  10 c8
M  ZZC  11 o2
M  ZZC  12 n2
M  ZZC  13 c9
M  ZZC  14 c10
M  ZZC  15 o3
M  ZZC  16 n3
M  ZZC  17 c11
M  ZZC  18 c12
M  ZZC  19 c13
M  ZZC  20 c14
M  ZZC  21 c15
M  ZZC  22 c16
M  ZZC  23 c17
M  ZZC  24 c18
M  ZZC  25 n4
M  ZZC  26 c19
M  ZZC  27 s1
M  ZZC  28 c20
M  ZZC  29 c21
M  ZZC  30 c22
M  ZZC  31 c23
M  ZZC  32 o4
M  ZZC  33 c24
M  ZZC  34 h11
M  ZZC  35 h12
M  ZZC  36 h13
M  ZZC  37 h01
M  ZZC  38 h31
M  ZZC  39 h51
M  ZZC  40 h52
M  ZZC  41 h53
M  ZZC  42 h61
M  ZZC  43 h62
M  ZZC  44 h63
M  ZZC  45 h71
M  ZZC  46 h72
M  ZZC  47 h73
M  ZZC  48 h91
M  ZZC  49 h02
M  ZZC  50 h111
M  ZZC  51 h112
M  ZZC  52 h131
M  ZZC  53 h141
M  ZZC  54 h181
M  ZZC  55 h182
M  ZZC  56 h183
M  ZZC  57 h191
M  ZZC  58 h201
M  ZZC  59 h211
M  ZZC  60 h221
M  ZZC  61 h222
M  ZZC  62 h231
M  ZZC  63 h41
M  ZZC  64 h241
M  ZZC  65 h242
M  ZZM   1 1
M  ZZI   1 111
M  ZZM   2 3
M  ZZI   2 121
M  ZZM   3 7
M  ZZI   3 81
M  ZZM   4 10
M  ZZI   4 211
M  ZZM   5 1
M  ZZI   5 113
M  ZZM   6 1
M  ZZI   6 110
M  ZZM   7 1
M  ZZI   7 111
M  ZZM   8 1
M  ZZI   8 111
M  ZZM   9 1
M  ZZI   9 111
M  ZZM  10 3
M  ZZI  10 121
M  ZZM  11 7
M  ZZI  11 81
M  ZZM  12 10
M  ZZI  12 192
M  ZZM  13 1
M  ZZI  13 113
M  ZZM  14 3
M  ZZI  14 121
M  ZZM  15 7
M  ZZI  15 81
M  ZZM  16 10
M  ZZI  16 211
M  ZZM  17 1
M  ZZI  17 112
M  ZZM  18 37
M  ZZI  18 124
M  ZZM  19 37
M  ZZI  19 125
M  ZZM  20 37
M  ZZI  20 125
M  ZZM  21 37
M  ZZI  21 124
M  ZZM  22 63
M  ZZI  22 104
M  ZZM  23 64
M  ZZI  23 105
M  ZZM  24 1
M  ZZI  24 111
M  ZZM  25 66
M  ZZI  25 222
M  ZZM  26 63
M  ZZI  26 104
M  ZZM  27 44
M  ZZI  27 248
M  ZZM  28 37
M  ZZI  28 125
M  ZZM  29 37
M  ZZI  29 125
M  ZZM  30 1
M  ZZI  30 112
M  ZZM  31 1
M  ZZI  31 113
M  ZZM  32 6
M  ZZI  32 60
M  ZZM  33 1
M  ZZI  33 112
M  ZZM  34 5
M  ZZI  34 1
M  ZZM  35 5
M  ZZI  35 1
M  ZZM  36 5
M  ZZI  36 1
M  ZZM  37 28
M  ZZI  37 11
M  ZZM  38 5
M  ZZI  38 1
M  ZZM  39 5
M  ZZI  39 1
M  ZZM  40 5
M  ZZI  40 1
M  ZZM  41 5
M  ZZI  41 1
M  ZZM  42 5
M  ZZI  42 1
M  ZZM  43 5
M  ZZI  43 1
M  ZZM  44 5
M  ZZI  44 1
M  ZZM  45 5
M  ZZI  45 1
M  ZZM  46 5
M  ZZI  46 1
M  ZZM  47 5
M  ZZI  47 1
M  ZZM  48 5
M  ZZI  48 1
M  ZZM  49 28
M  ZZI  49 11
M  ZZM  50 5
M  ZZI  50 1
M  ZZM  51 5
M  ZZI  51 1
M  ZZM  52 5
M  ZZI  52 1
M  ZZM  53 5
M  ZZI  53 1
M  ZZM  54 5
M  ZZI  54 1
M  ZZM  55 5
M  ZZI  55 1
M  ZZM  56 5
M  ZZI  56 1
M  ZZM  57 5
M  ZZI  57 1
M  ZZM  58 5
M  ZZI  58 1
M  ZZM  59 5
M  ZZI  59 1
M  ZZM  60 5
M  ZZI  60 1
M  ZZM  61 5
M  ZZI  61 1
M  ZZM  62 5
M  ZZI  62 1
M  ZZM  63 21
M  ZZI  63 20
M  ZZM  64 5
M  ZZI  64 1
M  ZZM  65 5
M  ZZI  65 1
M  END
> <IX>
1

> <NAME>
VHL_5G0I_9.pdb

> <Score>
-11.77451

> <Natom>
65

> <Nflex>
8

> <Hbond>
-4.970097

> <Hphob>
-6.507643

> <VwInt>
-28.084944

> <Dsolv>
16.891882

> <SolEl>
16.905445

> <Eintl>
7.697324

> <RecConf>
ND

> <projPath>
VHL_maps/

> <NAME_>
VHL_5G0I_9.pdb

$$$$
