VHL_1ERR_21.pdb
  MOLSOFT 04032206373D

 68 70  0  0  1  0  0  0  0  0999 V2000
   16.1395   -6.4077   -5.6979 O   0  0  0  0  0  0  0  0  0  0  0  0
   17.2405   -6.0345   -5.3254 C   0  0  0  0  0  0  0  0  0  0  0  0
   17.5220   -4.7810   -4.8133 N   0  0  0  0  0  0  0  0  0  0  0  0
   16.5369   -3.7005   -4.6988 C   0  0  1  0  0  0  0  0  0  0  0  0
   15.8991   -3.5891   -3.2746 C   0  0  0  0  0  0  0  0  0  0  0  0
   15.4443   -4.9646   -2.7633 C   0  0  0  0  0  0  0  0  0  0  0  0
   14.6542   -2.6887   -3.3161 C   0  0  0  0  0  0  0  0  0  0  0  0
   16.8797   -3.0088   -2.2430 C   0  0  0  0  0  0  0  0  0  0  0  0
   17.2217   -2.3964   -5.1508 C   0  0  0  0  0  0  0  0  0  0  0  0
   18.3660   -2.1319   -4.8115 O   0  0  0  0  0  0  0  0  0  0  0  0
   16.4778   -1.4810   -5.8966 N   0  0  0  0  0  0  0  0  0  0  0  0
   17.0125   -0.1584   -6.1988 C   0  0  2  0  0  0  0  0  0  0  0  0
   17.1009    0.7702   -4.9942 C   0  0  0  0  0  0  0  0  0  0  0  0
   16.3832    0.6689   -4.0084 O   0  0  0  0  0  0  0  0  0  0  0  0
   18.0035    1.7963   -5.2002 N   0  0  0  0  0  0  0  0  0  0  0  0
   18.0330    2.9760   -4.3586 C   0  0  1  0  0  0  0  0  0  0  0  0
   19.4661    3.4676   -4.1680 C   0  0  0  0  0  0  0  0  0  0  0  0
   17.1262    4.0348   -4.9544 C   0  0  0  0  0  0  0  0  0  0  0  0
   15.9597    4.4097   -4.2931 C   0  0  0  0  0  0  0  0  0  0  0  0
   15.1139    5.3680   -4.8248 C   0  0  0  0  0  0  0  0  0  0  0  0
   15.4074    5.9811   -6.0386 C   0  0  0  0  0  0  0  0  0  0  0  0
   14.5592    7.0372   -6.5724 C   0  0  0  0  0  0  0  0  0  0  0  0
   13.8973    7.1559   -7.7888 C   0  0  0  0  0  0  0  0  0  0  0  0
   13.8444    6.1549   -8.8787 C   0  0  0  0  0  0  0  0  0  0  0  0
   13.2289    8.3497   -7.9736 N   0  0  0  0  0  0  0  0  0  0  0  0
   13.3839    9.1078   -6.9115 C   0  0  0  0  0  0  0  0  0  0  0  0
   14.2953    8.4518   -5.6322 S   0  0  0  0  0  0  0  0  0  0  0  0
   16.5530    5.5866   -6.7199 C   0  0  0  0  0  0  0  0  0  0  0  0
   17.3990    4.6293   -6.1868 C   0  0  0  0  0  0  0  0  0  0  0  0
   16.0399    0.4550   -7.2009 C   0  0  0  0  0  0  0  0  0  0  0  0
   15.3934   -0.7462   -7.8523 C   0  0  1  0  0  0  0  0  0  0  0  0
   16.2035   -1.2032   -8.9441 O   0  0  0  0  0  0  0  0  0  0  0  0
   15.3391   -1.7835   -6.7392 C   0  0  0  0  0  0  0  0  0  0  0  0
   18.4322   -6.9501   -5.3802 C   0  0  0  0  0  0  0  0  0  0  0  0
   18.4694   -4.5857   -4.5148 H   0  0  0  0  0  0  0  0  0  0  0  0
   15.7614   -3.9420   -5.4122 H   0  0  0  0  0  0  0  0  0  0  0  0
   14.7298   -5.4240   -3.4482 H   0  0  0  0  0  0  0  0  0  0  0  0
   14.9496   -4.8890   -1.7899 H   0  0  0  0  0  0  0  0  0  0  0  0
   16.2819   -5.6559   -2.6374 H   0  0  0  0  0  0  0  0  0  0  0  0
   13.9169   -3.0389   -4.0424 H   0  0  0  0  0  0  0  0  0  0  0  0
   14.9112   -1.6624   -3.5979 H   0  0  0  0  0  0  0  0  0  0  0  0
   14.1627   -2.6415   -2.3393 H   0  0  0  0  0  0  0  0  0  0  0  0
   17.1351   -1.9668   -2.4575 H   0  0  0  0  0  0  0  0  0  0  0  0
   17.8115   -3.5767   -2.2112 H   0  0  0  0  0  0  0  0  0  0  0  0
   16.4547   -3.0283   -1.2341 H   0  0  0  0  0  0  0  0  0  0  0  0
   18.0087   -0.2821   -6.6279 H   0  0  0  0  0  0  0  0  0  0  0  0
   18.5665    1.8019   -6.0441 H   0  0  0  0  0  0  0  0  0  0  0  0
   17.6496    2.6939   -3.3718 H   0  0  0  0  0  0  0  0  0  0  0  0
   20.0707    2.7017   -3.6727 H   0  0  0  0  0  0  0  0  0  0  0  0
   19.4966    4.3717   -3.5520 H   0  0  0  0  0  0  0  0  0  0  0  0
   19.9555    3.6950   -5.1207 H   0  0  0  0  0  0  0  0  0  0  0  0
   15.6960    3.9506   -3.3445 H   0  0  0  0  0  0  0  0  0  0  0  0
   14.2155    5.6349   -4.2754 H   0  0  0  0  0  0  0  0  0  0  0  0
   14.8092    6.0861   -9.3893 H   0  0  0  0  0  0  0  0  0  0  0  0
   13.0910    6.4257   -9.6237 H   0  0  0  0  0  0  0  0  0  0  0  0
   13.5860    5.1648   -8.4916 H   0  0  0  0  0  0  0  0  0  0  0  0
   12.9645   10.0980   -6.8342 H   0  0  0  0  0  0  0  0  0  0  0  0
   16.8119    6.0453   -7.6701 H   0  0  0  0  0  0  0  0  0  0  0  0
   18.2858    4.3515   -6.7484 H   0  0  0  0  0  0  0  0  0  0  0  0
   15.2766    1.0547   -6.6912 H   0  0  0  0  0  0  0  0  0  0  0  0
   16.5550    1.1035   -7.9176 H   0  0  0  0  0  0  0  0  0  0  0  0
   14.4011   -0.5127   -8.2379 H   0  0  0  0  0  0  0  0  0  0  0  0
   17.1353   -1.1395   -8.6633 H   0  0  0  0  0  0  0  0  0  0  0  0
   15.4079   -2.8017   -7.1292 H   0  0  0  0  0  0  0  0  0  0  0  0
   14.4363   -1.6686   -6.1312 H   0  0  0  0  0  0  0  0  0  0  0  0
   18.4620   -7.4399   -6.3571 H   0  0  0  0  0  0  0  0  0  0  0  0
   18.3342   -7.7070   -4.5985 H   0  0  0  0  0  0  0  0  0  0  0  0
   19.3695   -6.4036   -5.2423 H   0  0  0  0  0  0  0  0  0  0  0  0
  1  2  2  0  0  0  0
  2  3  1  0  0  0  0
  2 34  1  0  0  0  0
  4  3  1  0  0  0  0
  3 35  1  0  0  0  0
  4  5  1  0  0  0  0
  4 36  1  0  0  0  0
  4  9  1  0  0  0  0
  5  6  1  0  0  0  0
  5  7  1  0  0  0  0
  5  8  1  0  0  0  0
  6 37  1  0  0  0  0
  6 38  1  0  0  0  0
  6 39  1  0  0  0  0
  7 40  1  0  0  0  0
  7 41  1  0  0  0  0
  7 42  1  0  0  0  0
  8 43  1  0  0  0  0
  8 44  1  0  0  0  0
  8 45  1  0  0  0  0
  9 10  2  0  0  0  0
  9 11  1  0  0  0  0
 11 33  1  0  0  0  0
 12 11  1  0  0  0  0
 12 30  1  0  0  0  0
 12 46  1  0  0  0  0
 12 13  1  0  0  0  0
 13 14  2  0  0  0  0
 13 15  1  0  0  0  0
 15 47  1  0  0  0  0
 16 15  1  0  0  0  0
 16 48  1  0  0  0  0
 16 17  1  0  0  0  0
 16 18  1  0  0  0  0
 17 49  1  0  0  0  0
 17 50  1  0  0  0  0
 17 51  1  0  0  0  0
 18 19  1  0  0  0  0
 18 29  2  0  0  0  0
 19 52  1  0  0  0  0
 19 20  2  0  0  0  0
 20 53  1  0  0  0  0
 20 21  1  0  0  0  0
 21 28  2  0  0  0  0
 21 22  1  0  0  0  0
 22 23  2  0  0  0  0
 22 27  1  0  0  0  0
 23 24  1  0  0  0  0
 23 25  1  0  0  0  0
 24 54  1  0  0  0  0
 24 55  1  0  0  0  0
 24 56  1  0  0  0  0
 25 26  2  0  0  0  0
 26 57  1  0  0  0  0
 26 27  1  0  0  0  0
 28 58  1  0  0  0  0
 28 29  1  0  0  0  0
 29 59  1  0  0  0  0
 31 30  1  0  0  0  0
 30 60  1  0  0  0  0
 30 61  1  0  0  0  0
 31 33  1  0  0  0  0
 31 62  1  0  0  0  0
 31 32  1  0  0  0  0
 32 63  1  0  0  0  0
 33 64  1  0  0  0  0
 33 65  1  0  0  0  0
 34 66  1  0  0  0  0
 34 67  1  0  0  0  0
 34 68  1  0  0  0  0
M  ZZC   1 o1
M  ZZC   2 c1
M  ZZC   3 n1
M  ZZC   4 c2
M  ZZC   5 c3
M  ZZC   6 c4
M  ZZC   7 c5
M  ZZC   8 c6
M  ZZC   9 c7
M  ZZC  10 o2
M  ZZC  11 n2
M  ZZC  12 c8
M  ZZC  13 c9
M  ZZC  14 o3
M  ZZC  15 n3
M  ZZC  16 c10
M  ZZC  17 c11
M  ZZC  18 c12
M  ZZC  19 c13
M  ZZC  20 c14
M  ZZC  21 c15
M  ZZC  22 c16
M  ZZC  23 c17
M  ZZC  24 c18
M  ZZC  25 n4
M  ZZC  26 c19
M  ZZC  27 s1
M  ZZC  28 c20
M  ZZC  29 c21
M  ZZC  30 c22
M  ZZC  31 c23
M  ZZC  32 o4
M  ZZC  33 c24
M  ZZC  34 c25
M  ZZC  35 h11
M  ZZC  36 h21
M  ZZC  37 h41
M  ZZC  38 h42
M  ZZC  39 h43
M  ZZC  40 h51
M  ZZC  41 h52
M  ZZC  42 h53
M  ZZC  43 h61
M  ZZC  44 h62
M  ZZC  45 h63
M  ZZC  46 h81
M  ZZC  47 h31
M  ZZC  48 h101
M  ZZC  49 h111
M  ZZC  50 h112
M  ZZC  51 h113
M  ZZC  52 h131
M  ZZC  53 h141
M  ZZC  54 h181
M  ZZC  55 h182
M  ZZC  56 h183
M  ZZC  57 h191
M  ZZC  58 h201
M  ZZC  59 h211
M  ZZC  60 h221
M  ZZC  61 h222
M  ZZC  62 h231
M  ZZC  63 h01
M  ZZC  64 h241
M  ZZC  65 h242
M  ZZC  66 h251
M  ZZC  67 h252
M  ZZC  68 h253
M  ZZM   1 7
M  ZZI   1 81
M  ZZM   2 3
M  ZZI   2 121
M  ZZM   3 10
M  ZZI   3 211
M  ZZM   4 1
M  ZZI   4 113
M  ZZM   5 1
M  ZZI   5 110
M  ZZM   6 1
M  ZZI   6 111
M  ZZM   7 1
M  ZZI   7 111
M  ZZM   8 1
M  ZZI   8 111
M  ZZM   9 3
M  ZZI   9 121
M  ZZM  10 7
M  ZZI  10 81
M  ZZM  11 10
M  ZZI  11 192
M  ZZM  12 1
M  ZZI  12 113
M  ZZM  13 3
M  ZZI  13 121
M  ZZM  14 7
M  ZZI  14 81
M  ZZM  15 10
M  ZZI  15 211
M  ZZM  16 1
M  ZZI  16 113
M  ZZM  17 1
M  ZZI  17 111
M  ZZM  18 37
M  ZZI  18 124
M  ZZM  19 37
M  ZZI  19 125
M  ZZM  20 37
M  ZZI  20 125
M  ZZM  21 37
M  ZZI  21 124
M  ZZM  22 63
M  ZZI  22 104
M  ZZM  23 64
M  ZZI  23 105
M  ZZM  24 1
M  ZZI  24 111
M  ZZM  25 66
M  ZZI  25 222
M  ZZM  26 63
M  ZZI  26 104
M  ZZM  27 44
M  ZZI  27 248
M  ZZM  28 37
M  ZZI  28 125
M  ZZM  29 37
M  ZZI  29 125
M  ZZM  30 1
M  ZZI  30 112
M  ZZM  31 1
M  ZZI  31 113
M  ZZM  32 6
M  ZZI  32 60
M  ZZM  33 1
M  ZZI  33 112
M  ZZM  34 1
M  ZZI  34 111
M  ZZM  35 28
M  ZZI  35 11
M  ZZM  36 5
M  ZZI  36 1
M  ZZM  37 5
M  ZZI  37 1
M  ZZM  38 5
M  ZZI  38 1
M  ZZM  39 5
M  ZZI  39 1
M  ZZM  40 5
M  ZZI  40 1
M  ZZM  41 5
M  ZZI  41 1
M  ZZM  42 5
M  ZZI  42 1
M  ZZM  43 5
M  ZZI  43 1
M  ZZM  44 5
M  ZZI  44 1
M  ZZM  45 5
M  ZZI  45 1
M  ZZM  46 5
M  ZZI  46 1
M  ZZM  47 28
M  ZZI  47 11
M  ZZM  48 5
M  ZZI  48 1
M  ZZM  49 5
M  ZZI  49 1
M  ZZM  50 5
M  ZZI  50 1
M  ZZM  51 5
M  ZZI  51 1
M  ZZM  52 5
M  ZZI  52 1
M  ZZM  53 5
M  ZZI  53 1
M  ZZM  54 5
M  ZZI  54 1
M  ZZM  55 5
M  ZZI  55 1
M  ZZM  56 5
M  ZZI  56 1
M  ZZM  57 5
M  ZZI  57 1
M  ZZM  58 5
M  ZZI  58 1
M  ZZM  59 5
M  ZZI  59 1
M  ZZM  60 5
M  ZZI  60 1
M  ZZM  61 5
M  ZZI  61 1
M  ZZM  62 5
M  ZZI  62 1
M  ZZM  63 21
M  ZZI  63 20
M  ZZM  64 5
M  ZZI  64 1
M  ZZM  65 5
M  ZZI  65 1
M  ZZM  66 5
M  ZZI  66 1
M  ZZM  67 5
M  ZZI  67 1
M  ZZM  68 5
M  ZZI  68 1
M  END
> <IX>
1

> <NAME>
VHL_1ERR_21.pdb

> <Score>
-22.011096

> <Natom>
68

> <Nflex>
8

> <Hbond>
-8.007224

> <Hphob>
-6.358802

> <VwInt>
-30.94034

> <Dsolv>
22.175579

> <SolEl>
12.800836

> <Eintl>
5.946136

> <RecConf>
ND

> <projPath>
VHL_maps/

> <NAME_>
VHL_1ERR_21.pdb

$$$$
