VHL_3K6P_10.pdb
  MOLSOFT 04032206373D

 61 63  0  0  1  0  0  0  0  0999 V2000
   17.2301   -4.7558   -4.6711 N   0  3  0  0  0  0  0  0  0  0  0  0
   16.3745   -3.5153   -4.5320 C   0  0  1  0  0  0  0  0  0  0  0  0
   15.8290   -3.3624   -3.0768 C   0  0  0  0  0  0  0  0  0  0  0  0
   14.7009   -2.3184   -3.0572 C   0  0  0  0  0  0  0  0  0  0  0  0
   15.2363   -4.6881   -2.5701 C   0  0  0  0  0  0  0  0  0  0  0  0
   16.9157   -2.9197   -2.0839 C   0  0  0  0  0  0  0  0  0  0  0  0
   17.1529   -2.2914   -5.0407 C   0  0  0  0  0  0  0  0  0  0  0  0
   18.3294   -2.1450   -4.7484 O   0  0  0  0  0  0  0  0  0  0  0  0
   16.4920   -1.3502   -5.8271 N   0  0  0  0  0  0  0  0  0  0  0  0
   17.1886   -0.1427   -6.2507 C   0  0  2  0  0  0  0  0  0  0  0  0
   17.5533    0.8256   -5.1333 C   0  0  0  0  0  0  0  0  0  0  0  0
   16.9582    0.8747   -4.0654 O   0  0  0  0  0  0  0  0  0  0  0  0
   18.5367    1.7152   -5.5292 N   0  0  0  0  0  0  0  0  0  0  0  0
   18.6688    3.0159   -4.9112 C   0  0  0  0  0  0  0  0  0  0  0  0
   17.6381    3.9191   -5.5344 C   0  0  0  0  0  0  0  0  0  0  0  0
   17.8884    4.5566   -6.7472 C   0  0  0  0  0  0  0  0  0  0  0  0
   16.8616    5.1753   -7.4401 C   0  0  0  0  0  0  0  0  0  0  0  0
   15.5662    5.1448   -6.9388 C   0  0  0  0  0  0  0  0  0  0  0  0
   14.4477    5.6416   -7.7115 C   0  0  0  0  0  0  0  0  0  0  0  0
   13.4815    4.9443   -8.4233 C   0  0  0  0  0  0  0  0  0  0  0  0
   13.4135    3.4795   -8.6417 C   0  0  0  0  0  0  0  0  0  0  0  0
   12.4777    5.7280   -8.9475 N   0  0  0  0  0  0  0  0  0  0  0  0
   12.7371    6.9908   -8.6897 C   0  0  0  0  0  0  0  0  0  0  0  0
   14.1471    7.3259   -7.7966 S   0  0  0  0  0  0  0  0  0  0  0  0
   15.3288    4.5737   -5.6970 C   0  0  0  0  0  0  0  0  0  0  0  0
   16.3569    3.9779   -4.9959 C   0  0  0  0  0  0  0  0  0  0  0  0
   16.2279    0.5527   -7.2118 C   0  0  0  0  0  0  0  0  0  0  0  0
   15.4211   -0.5892   -7.7890 C   0  0  1  0  0  0  0  0  0  0  0  0
   16.1380   -1.1891   -8.8787 O   0  0  0  0  0  0  0  0  0  0  0  0
   15.2921   -1.5576   -6.6182 C   0  0  0  0  0  0  0  0  0  0  0  0
   17.6002   -4.8408   -5.6272 H   0  0  0  0  0  0  0  0  0  0  0  0
   16.7203   -5.6263   -4.4673 H   0  0  0  0  0  0  0  0  0  0  0  0
   18.0560   -4.7258   -4.0585 H   0  0  0  0  0  0  0  0  0  0  0  0
   15.5367   -3.6973   -5.1946 H   0  0  0  0  0  0  0  0  0  0  0  0
   15.0642   -1.3276   -3.3498 H   0  0  0  0  0  0  0  0  0  0  0  0
   14.2667   -2.2213   -2.0569 H   0  0  0  0  0  0  0  0  0  0  0  0
   13.8920   -2.5759   -3.7465 H   0  0  0  0  0  0  0  0  0  0  0  0
   14.7368   -4.5594   -1.6051 H   0  0  0  0  0  0  0  0  0  0  0  0
   16.0017   -5.4551   -2.4240 H   0  0  0  0  0  0  0  0  0  0  0  0
   14.4956   -5.0866   -3.2681 H   0  0  0  0  0  0  0  0  0  0  0  0
   16.5291   -2.8900   -1.0599 H   0  0  0  0  0  0  0  0  0  0  0  0
   17.2941   -1.9180   -2.3086 H   0  0  0  0  0  0  0  0  0  0  0  0
   17.7680   -3.6015   -2.0851 H   0  0  0  0  0  0  0  0  0  0  0  0
   18.1034   -0.4508   -6.7537 H   0  0  0  0  0  0  0  0  0  0  0  0
   19.0332    1.5558   -6.4001 H   0  0  0  0  0  0  0  0  0  0  0  0
   18.5252    2.9338   -3.8281 H   0  0  0  0  0  0  0  0  0  0  0  0
   19.6834    3.3842   -5.0949 H   0  0  0  0  0  0  0  0  0  0  0  0
   18.8798    4.5263   -7.1898 H   0  0  0  0  0  0  0  0  0  0  0  0
   17.0699    5.6419   -8.3987 H   0  0  0  0  0  0  0  0  0  0  0  0
   14.2932    3.1302   -9.1889 H   0  0  0  0  0  0  0  0  0  0  0  0
   12.5331    3.2083   -9.2313 H   0  0  0  0  0  0  0  0  0  0  0  0
   13.3610    2.9399   -7.6922 H   0  0  0  0  0  0  0  0  0  0  0  0
   12.0962    7.7928   -9.0091 H   0  0  0  0  0  0  0  0  0  0  0  0
   14.3239    4.5538   -5.2830 H   0  0  0  0  0  0  0  0  0  0  0  0
   16.1325    3.4875   -4.0527 H   0  0  0  0  0  0  0  0  0  0  0  0
   15.5644    1.2401   -6.6742 H   0  0  0  0  0  0  0  0  0  0  0  0
   16.7627    1.1260   -7.9757 H   0  0  0  0  0  0  0  0  0  0  0  0
   14.4483   -0.2613   -8.1618 H   0  0  0  0  0  0  0  0  0  0  0  0
   17.0863   -1.1698   -8.6537 H   0  0  0  0  0  0  0  0  0  0  0  0
   15.2280   -2.5947   -6.9557 H   0  0  0  0  0  0  0  0  0  0  0  0
   14.4331   -1.3119   -5.9853 H   0  0  0  0  0  0  0  0  0  0  0  0
  1 31  1  0  0  0  0
  1 32  1  0  0  0  0
  1 33  1  0  0  0  0
  2  1  1  0  0  0  0
  2 34  1  0  0  0  0
  2  3  1  0  0  0  0
  2  7  1  0  0  0  0
  3  4  1  0  0  0  0
  3  5  1  0  0  0  0
  3  6  1  0  0  0  0
  4 35  1  0  0  0  0
  4 36  1  0  0  0  0
  4 37  1  0  0  0  0
  5 38  1  0  0  0  0
  5 39  1  0  0  0  0
  5 40  1  0  0  0  0
  6 41  1  0  0  0  0
  6 42  1  0  0  0  0
  6 43  1  0  0  0  0
  7  8  2  0  0  0  0
  7  9  1  0  0  0  0
  9 30  1  0  0  0  0
 10  9  1  0  0  0  0
 10 27  1  0  0  0  0
 10 44  1  0  0  0  0
 10 11  1  0  0  0  0
 11 12  2  0  0  0  0
 11 13  1  0  0  0  0
 13 45  1  0  0  0  0
 13 14  1  0  0  0  0
 14 46  1  0  0  0  0
 14 47  1  0  0  0  0
 14 15  1  0  0  0  0
 15 16  1  0  0  0  0
 15 26  2  0  0  0  0
 16 48  1  0  0  0  0
 16 17  2  0  0  0  0
 17 49  1  0  0  0  0
 17 18  1  0  0  0  0
 18 25  2  0  0  0  0
 18 19  1  0  0  0  0
 19 20  2  0  0  0  0
 19 24  1  0  0  0  0
 20 21  1  0  0  0  0
 20 22  1  0  0  0  0
 21 50  1  0  0  0  0
 21 51  1  0  0  0  0
 21 52  1  0  0  0  0
 22 23  2  0  0  0  0
 23 53  1  0  0  0  0
 23 24  1  0  0  0  0
 25 54  1  0  0  0  0
 25 26  1  0  0  0  0
 26 55  1  0  0  0  0
 28 27  1  0  0  0  0
 27 56  1  0  0  0  0
 27 57  1  0  0  0  0
 28 30  1  0  0  0  0
 28 58  1  0  0  0  0
 28 29  1  0  0  0  0
 29 59  1  0  0  0  0
 30 60  1  0  0  0  0
 30 61  1  0  0  0  0
M  ZZC   1 n1
M  ZZC   2 c1
M  ZZC   3 c2
M  ZZC   4 c3
M  ZZC   5 c4
M  ZZC   6 c5
M  ZZC   7 c6
M  ZZC   8 o1
M  ZZC   9 n2
M  ZZC  10 c7
M  ZZC  11 c8
M  ZZC  12 o2
M  ZZC  13 n3
M  ZZC  14 c9
M  ZZC  15 c10
M  ZZC  16 c11
M  ZZC  17 c12
M  ZZC  18 c13
M  ZZC  19 c14
M  ZZC  20 c15
M  ZZC  21 c16
M  ZZC  22 n4
M  ZZC  23 c17
M  ZZC  24 s1
M  ZZC  25 c18
M  ZZC  26 c19
M  ZZC  27 c20
M  ZZC  28 c21
M  ZZC  29 o3
M  ZZC  30 c22
M  ZZC  31 h11
M  ZZC  32 h12
M  ZZC  33 h13
M  ZZC  34 h01
M  ZZC  35 h31
M  ZZC  36 h32
M  ZZC  37 h33
M  ZZC  38 h41
M  ZZC  39 h42
M  ZZC  40 h43
M  ZZC  41 h51
M  ZZC  42 h52
M  ZZC  43 h53
M  ZZC  44 h71
M  ZZC  45 h02
M  ZZC  46 h91
M  ZZC  47 h92
M  ZZC  48 h111
M  ZZC  49 h121
M  ZZC  50 h161
M  ZZC  51 h162
M  ZZC  52 h163
M  ZZC  53 h171
M  ZZC  54 h181
M  ZZC  55 h191
M  ZZC  56 h201
M  ZZC  57 h202
M  ZZC  58 h211
M  ZZC  59 h03
M  ZZC  60 h221
M  ZZC  61 h222
M  ZZM   1 34
M  ZZI   1 231
M  ZZM   2 1
M  ZZI   2 113
M  ZZM   3 1
M  ZZI   3 110
M  ZZM   4 1
M  ZZI   4 111
M  ZZM   5 1
M  ZZI   5 111
M  ZZM   6 1
M  ZZI   6 111
M  ZZM   7 3
M  ZZI   7 121
M  ZZM   8 7
M  ZZI   8 81
M  ZZM   9 10
M  ZZI   9 192
M  ZZM  10 1
M  ZZI  10 113
M  ZZM  11 3
M  ZZI  11 121
M  ZZM  12 7
M  ZZI  12 81
M  ZZM  13 10
M  ZZI  13 211
M  ZZM  14 1
M  ZZI  14 112
M  ZZM  15 37
M  ZZI  15 124
M  ZZM  16 37
M  ZZI  16 125
M  ZZM  17 37
M  ZZI  17 125
M  ZZM  18 37
M  ZZI  18 124
M  ZZM  19 63
M  ZZI  19 104
M  ZZM  20 64
M  ZZI  20 105
M  ZZM  21 1
M  ZZI  21 111
M  ZZM  22 66
M  ZZI  22 222
M  ZZM  23 63
M  ZZI  23 104
M  ZZM  24 44
M  ZZI  24 248
M  ZZM  25 37
M  ZZI  25 125
M  ZZM  26 37
M  ZZI  26 125
M  ZZM  27 1
M  ZZI  27 112
M  ZZM  28 1
M  ZZI  28 113
M  ZZM  29 6
M  ZZI  29 60
M  ZZM  30 1
M  ZZI  30 112
M  ZZM  31 36
M  ZZI  31 17
M  ZZM  32 36
M  ZZI  32 17
M  ZZM  33 36
M  ZZI  33 17
M  ZZM  34 5
M  ZZI  34 1
M  ZZM  35 5
M  ZZI  35 1
M  ZZM  36 5
M  ZZI  36 1
M  ZZM  37 5
M  ZZI  37 1
M  ZZM  38 5
M  ZZI  38 1
M  ZZM  39 5
M  ZZI  39 1
M  ZZM  40 5
M  ZZI  40 1
M  ZZM  41 5
M  ZZI  41 1
M  ZZM  42 5
M  ZZI  42 1
M  ZZM  43 5
M  ZZI  43 1
M  ZZM  44 5
M  ZZI  44 1
M  ZZM  45 28
M  ZZI  45 11
M  ZZM  46 5
M  ZZI  46 1
M  ZZM  47 5
M  ZZI  47 1
M  ZZM  48 5
M  ZZI  48 1
M  ZZM  49 5
M  ZZI  49 1
M  ZZM  50 5
M  ZZI  50 1
M  ZZM  51 5
M  ZZI  51 1
M  ZZM  52 5
M  ZZI  52 1
M  ZZM  53 5
M  ZZI  53 1
M  ZZM  54 5
M  ZZI  54 1
M  ZZM  55 5
M  ZZI  55 1
M  ZZM  56 5
M  ZZI  56 1
M  ZZM  57 5
M  ZZI  57 1
M  ZZM  58 5
M  ZZI  58 1
M  ZZM  59 21
M  ZZI  59 20
M  ZZM  60 5
M  ZZI  60 1
M  ZZM  61 5
M  ZZI  61 1
M  CHG  1   1   1
M  END
> <IX>
1

> <NAME>
VHL_3K6P_10.pdb

> <Score>
-17.584013

> <Natom>
61

> <Nflex>
7

> <Hbond>
-9.128982

> <Hphob>
-5.637309

> <VwInt>
-27.386774

> <Dsolv>
20.104794

> <SolEl>
17.97068

> <Eintl>
9.228064

> <RecConf>
ND

> <projPath>
VHL_maps/

> <NAME_>
VHL_3K6P_10.pdb

$$$$
