VHL_1ERR_12.pdb
  MOLSOFT 04032206383D

 68 70  0  0  1  0  0  0  0  0999 V2000
   15.8069   -6.2224   -5.4579 O   0  0  0  0  0  0  0  0  0  0  0  0
   16.8908   -5.8981   -5.0046 C   0  0  0  0  0  0  0  0  0  0  0  0
   17.1475   -4.7231   -4.3257 N   0  0  0  0  0  0  0  0  0  0  0  0
   16.1663   -3.6527   -4.0826 C   0  0  1  0  0  0  0  0  0  0  0  0
   15.8576   -3.4838   -2.5656 C   0  0  0  0  0  0  0  0  0  0  0  0
   17.0883   -3.0368   -1.7638 C   0  0  0  0  0  0  0  0  0  0  0  0
   14.7432   -2.4640   -2.3049 C   0  0  0  0  0  0  0  0  0  0  0  0
   15.3609   -4.8303   -2.0245 C   0  0  0  0  0  0  0  0  0  0  0  0
   16.7599   -2.4239   -4.7995 C   0  0  0  0  0  0  0  0  0  0  0  0
   17.9673   -2.2174   -4.7881 O   0  0  0  0  0  0  0  0  0  0  0  0
   15.8949   -1.5728   -5.4922 N   0  0  0  0  0  0  0  0  0  0  0  0
   16.4237   -0.6121   -6.4478 C   0  0  2  0  0  0  0  0  0  0  0  0
   16.9166    0.6684   -5.7704 C   0  0  0  0  0  0  0  0  0  0  0  0
   16.5217    1.0295   -4.6700 O   0  0  0  0  0  0  0  0  0  0  0  0
   17.8166    1.3819   -6.5456 N   0  0  0  0  0  0  0  0  0  0  0  0
   18.4241    2.6315   -6.1073 C   0  0  1  0  0  0  0  0  0  0  0  0
   19.8023    2.7981   -6.7526 C   0  0  0  0  0  0  0  0  0  0  0  0
   17.4971    3.8136   -6.3456 C   0  0  0  0  0  0  0  0  0  0  0  0
   17.5357    4.5871   -7.5060 C   0  0  0  0  0  0  0  0  0  0  0  0
   16.6566    5.6394   -7.6972 C   0  0  0  0  0  0  0  0  0  0  0  0
   15.7070    5.9590   -6.7352 C   0  0  0  0  0  0  0  0  0  0  0  0
   14.7739    7.0530   -6.9560 C   0  0  0  0  0  0  0  0  0  0  0  0
   13.8278    7.2315   -7.9540 C   0  0  0  0  0  0  0  0  0  0  0  0
   13.5084    6.2823   -9.0419 C   0  0  0  0  0  0  0  0  0  0  0  0
   13.1328    8.4222   -7.8958 N   0  0  0  0  0  0  0  0  0  0  0  0
   13.5429    9.1197   -6.8601 C   0  0  0  0  0  0  0  0  0  0  0  0
   14.7540    8.4049   -5.8940 S   0  0  0  0  0  0  0  0  0  0  0  0
   15.6622    5.1993   -5.5740 C   0  0  0  0  0  0  0  0  0  0  0  0
   16.5436    4.1494   -5.3855 C   0  0  0  0  0  0  0  0  0  0  0  0
   15.2638   -0.3545   -7.3967 C   0  0  0  0  0  0  0  0  0  0  0  0
   14.0328   -0.5076   -6.5193 C   0  0  1  0  0  0  0  0  0  0  0  0
   12.9321   -0.9936   -7.2854 O   0  0  0  0  0  0  0  0  0  0  0  0
   14.4445   -1.5235   -5.4630 C   0  0  0  0  0  0  0  0  0  0  0  0
   18.0877   -6.7996   -5.1268 C   0  0  0  0  0  0  0  0  0  0  0  0
   18.1073   -4.5401   -4.0561 H   0  0  0  0  0  0  0  0  0  0  0  0
   15.2434   -3.9428   -4.5825 H   0  0  0  0  0  0  0  0  0  0  0  0
   17.9177   -3.7319   -1.8774 H   0  0  0  0  0  0  0  0  0  0  0  0
   16.8668   -2.9766   -0.6933 H   0  0  0  0  0  0  0  0  0  0  0  0
   17.4415   -2.0494   -2.0769 H   0  0  0  0  0  0  0  0  0  0  0  0
   14.4796   -2.4230   -1.2435 H   0  0  0  0  0  0  0  0  0  0  0  0
   13.8450   -2.6906   -2.8857 H   0  0  0  0  0  0  0  0  0  0  0  0
   15.0508   -1.4537   -2.5944 H   0  0  0  0  0  0  0  0  0  0  0  0
   14.4834   -5.1856   -2.5743 H   0  0  0  0  0  0  0  0  0  0  0  0
   15.0757   -4.7499   -0.9732 H   0  0  0  0  0  0  0  0  0  0  0  0
   16.1253   -5.6060   -2.1003 H   0  0  0  0  0  0  0  0  0  0  0  0
   17.2669   -1.0571   -6.9809 H   0  0  0  0  0  0  0  0  0  0  0  0
   18.1149    0.9875   -7.4326 H   0  0  0  0  0  0  0  0  0  0  0  0
   18.5904    2.5476   -5.0268 H   0  0  0  0  0  0  0  0  0  0  0  0
   20.2866    3.7146   -6.4095 H   0  0  0  0  0  0  0  0  0  0  0  0
   19.7302    2.8444   -7.8438 H   0  0  0  0  0  0  0  0  0  0  0  0
   20.4855    1.9856   -6.4937 H   0  0  0  0  0  0  0  0  0  0  0  0
   18.2608    4.3853   -8.2858 H   0  0  0  0  0  0  0  0  0  0  0  0
   16.7244    6.2211   -8.6129 H   0  0  0  0  0  0  0  0  0  0  0  0
   14.2965    6.2833   -9.7988 H   0  0  0  0  0  0  0  0  0  0  0  0
   12.5703    6.5522   -9.5286 H   0  0  0  0  0  0  0  0  0  0  0  0
   13.3984    5.2636   -8.6582 H   0  0  0  0  0  0  0  0  0  0  0  0
   13.1428   10.0938   -6.6213 H   0  0  0  0  0  0  0  0  0  0  0  0
   14.9252    5.4112   -4.8046 H   0  0  0  0  0  0  0  0  0  0  0  0
   16.4740    3.5790   -4.4640 H   0  0  0  0  0  0  0  0  0  0  0  0
   15.3005    0.6272   -7.8806 H   0  0  0  0  0  0  0  0  0  0  0  0
   15.2513   -1.1049   -8.1958 H   0  0  0  0  0  0  0  0  0  0  0  0
   13.7610    0.4533   -6.0665 H   0  0  0  0  0  0  0  0  0  0  0  0
   12.1111   -0.7254   -6.8359 H   0  0  0  0  0  0  0  0  0  0  0  0
   14.0193   -2.5150   -5.6173 H   0  0  0  0  0  0  0  0  0  0  0  0
   14.1164   -1.1710   -4.4857 H   0  0  0  0  0  0  0  0  0  0  0  0
   17.9885   -7.4152   -6.0258 H   0  0  0  0  0  0  0  0  0  0  0  0
   18.1328   -7.4495   -4.2496 H   0  0  0  0  0  0  0  0  0  0  0  0
   19.0126   -6.2200   -5.2049 H   0  0  0  0  0  0  0  0  0  0  0  0
  1  2  2  0  0  0  0
  2  3  1  0  0  0  0
  2 34  1  0  0  0  0
  4  3  1  0  0  0  0
  3 35  1  0  0  0  0
  4  5  1  0  0  0  0
  4 36  1  0  0  0  0
  4  9  1  0  0  0  0
  5  6  1  0  0  0  0
  5  7  1  0  0  0  0
  5  8  1  0  0  0  0
  6 37  1  0  0  0  0
  6 38  1  0  0  0  0
  6 39  1  0  0  0  0
  7 40  1  0  0  0  0
  7 41  1  0  0  0  0
  7 42  1  0  0  0  0
  8 43  1  0  0  0  0
  8 44  1  0  0  0  0
  8 45  1  0  0  0  0
  9 10  2  0  0  0  0
  9 11  1  0  0  0  0
 11 33  1  0  0  0  0
 12 11  1  0  0  0  0
 12 30  1  0  0  0  0
 12 46  1  0  0  0  0
 12 13  1  0  0  0  0
 13 14  2  0  0  0  0
 13 15  1  0  0  0  0
 15 47  1  0  0  0  0
 16 15  1  0  0  0  0
 16 48  1  0  0  0  0
 16 17  1  0  0  0  0
 16 18  1  0  0  0  0
 17 49  1  0  0  0  0
 17 50  1  0  0  0  0
 17 51  1  0  0  0  0
 18 19  1  0  0  0  0
 18 29  2  0  0  0  0
 19 52  1  0  0  0  0
 19 20  2  0  0  0  0
 20 53  1  0  0  0  0
 20 21  1  0  0  0  0
 21 28  2  0  0  0  0
 21 22  1  0  0  0  0
 22 23  2  0  0  0  0
 22 27  1  0  0  0  0
 23 24  1  0  0  0  0
 23 25  1  0  0  0  0
 24 54  1  0  0  0  0
 24 55  1  0  0  0  0
 24 56  1  0  0  0  0
 25 26  2  0  0  0  0
 26 57  1  0  0  0  0
 26 27  1  0  0  0  0
 28 58  1  0  0  0  0
 28 29  1  0  0  0  0
 29 59  1  0  0  0  0
 31 30  1  0  0  0  0
 30 60  1  0  0  0  0
 30 61  1  0  0  0  0
 31 33  1  0  0  0  0
 31 62  1  0  0  0  0
 31 32  1  0  0  0  0
 32 63  1  0  0  0  0
 33 64  1  0  0  0  0
 33 65  1  0  0  0  0
 34 66  1  0  0  0  0
 34 67  1  0  0  0  0
 34 68  1  0  0  0  0
M  ZZC   1 o1
M  ZZC   2 c1
M  ZZC   3 n1
M  ZZC   4 c2
M  ZZC   5 c3
M  ZZC   6 c4
M  ZZC   7 c5
M  ZZC   8 c6
M  ZZC   9 c7
M  ZZC  10 o2
M  ZZC  11 n2
M  ZZC  12 c8
M  ZZC  13 c9
M  ZZC  14 o3
M  ZZC  15 n3
M  ZZC  16 c10
M  ZZC  17 c11
M  ZZC  18 c12
M  ZZC  19 c13
M  ZZC  20 c14
M  ZZC  21 c15
M  ZZC  22 c16
M  ZZC  23 c17
M  ZZC  24 c18
M  ZZC  25 n4
M  ZZC  26 c19
M  ZZC  27 s1
M  ZZC  28 c20
M  ZZC  29 c21
M  ZZC  30 c22
M  ZZC  31 c23
M  ZZC  32 o4
M  ZZC  33 c24
M  ZZC  34 c25
M  ZZC  35 h11
M  ZZC  36 h21
M  ZZC  37 h41
M  ZZC  38 h42
M  ZZC  39 h43
M  ZZC  40 h51
M  ZZC  41 h52
M  ZZC  42 h53
M  ZZC  43 h61
M  ZZC  44 h62
M  ZZC  45 h63
M  ZZC  46 h81
M  ZZC  47 h31
M  ZZC  48 h101
M  ZZC  49 h111
M  ZZC  50 h112
M  ZZC  51 h113
M  ZZC  52 h131
M  ZZC  53 h141
M  ZZC  54 h181
M  ZZC  55 h182
M  ZZC  56 h183
M  ZZC  57 h191
M  ZZC  58 h201
M  ZZC  59 h211
M  ZZC  60 h221
M  ZZC  61 h222
M  ZZC  62 h231
M  ZZC  63 h01
M  ZZC  64 h241
M  ZZC  65 h242
M  ZZC  66 h251
M  ZZC  67 h252
M  ZZC  68 h253
M  ZZM   1 7
M  ZZI   1 81
M  ZZM   2 3
M  ZZI   2 121
M  ZZM   3 10
M  ZZI   3 211
M  ZZM   4 1
M  ZZI   4 113
M  ZZM   5 1
M  ZZI   5 110
M  ZZM   6 1
M  ZZI   6 111
M  ZZM   7 1
M  ZZI   7 111
M  ZZM   8 1
M  ZZI   8 111
M  ZZM   9 3
M  ZZI   9 121
M  ZZM  10 7
M  ZZI  10 81
M  ZZM  11 10
M  ZZI  11 192
M  ZZM  12 1
M  ZZI  12 113
M  ZZM  13 3
M  ZZI  13 121
M  ZZM  14 7
M  ZZI  14 81
M  ZZM  15 10
M  ZZI  15 211
M  ZZM  16 1
M  ZZI  16 113
M  ZZM  17 1
M  ZZI  17 111
M  ZZM  18 37
M  ZZI  18 124
M  ZZM  19 37
M  ZZI  19 125
M  ZZM  20 37
M  ZZI  20 125
M  ZZM  21 37
M  ZZI  21 124
M  ZZM  22 63
M  ZZI  22 104
M  ZZM  23 64
M  ZZI  23 105
M  ZZM  24 1
M  ZZI  24 111
M  ZZM  25 66
M  ZZI  25 222
M  ZZM  26 63
M  ZZI  26 104
M  ZZM  27 44
M  ZZI  27 248
M  ZZM  28 37
M  ZZI  28 125
M  ZZM  29 37
M  ZZI  29 125
M  ZZM  30 1
M  ZZI  30 112
M  ZZM  31 1
M  ZZI  31 113
M  ZZM  32 6
M  ZZI  32 60
M  ZZM  33 1
M  ZZI  33 112
M  ZZM  34 1
M  ZZI  34 111
M  ZZM  35 28
M  ZZI  35 11
M  ZZM  36 5
M  ZZI  36 1
M  ZZM  37 5
M  ZZI  37 1
M  ZZM  38 5
M  ZZI  38 1
M  ZZM  39 5
M  ZZI  39 1
M  ZZM  40 5
M  ZZI  40 1
M  ZZM  41 5
M  ZZI  41 1
M  ZZM  42 5
M  ZZI  42 1
M  ZZM  43 5
M  ZZI  43 1
M  ZZM  44 5
M  ZZI  44 1
M  ZZM  45 5
M  ZZI  45 1
M  ZZM  46 5
M  ZZI  46 1
M  ZZM  47 28
M  ZZI  47 11
M  ZZM  48 5
M  ZZI  48 1
M  ZZM  49 5
M  ZZI  49 1
M  ZZM  50 5
M  ZZI  50 1
M  ZZM  51 5
M  ZZI  51 1
M  ZZM  52 5
M  ZZI  52 1
M  ZZM  53 5
M  ZZI  53 1
M  ZZM  54 5
M  ZZI  54 1
M  ZZM  55 5
M  ZZI  55 1
M  ZZM  56 5
M  ZZI  56 1
M  ZZM  57 5
M  ZZI  57 1
M  ZZM  58 5
M  ZZI  58 1
M  ZZM  59 5
M  ZZI  59 1
M  ZZM  60 5
M  ZZI  60 1
M  ZZM  61 5
M  ZZI  61 1
M  ZZM  62 5
M  ZZI  62 1
M  ZZM  63 21
M  ZZI  63 20
M  ZZM  64 5
M  ZZI  64 1
M  ZZM  65 5
M  ZZI  65 1
M  ZZM  66 5
M  ZZI  66 1
M  ZZM  67 5
M  ZZI  67 1
M  ZZM  68 5
M  ZZI  68 1
M  END
> <IX>
1

> <NAME>
VHL_1ERR_12.pdb

> <Score>
-3.13164

> <Natom>
68

> <Nflex>
8

> <Hbond>
-5.031402

> <Hphob>
-6.806916

> <VwInt>
-28.297621

> <Dsolv>
22.666212

> <SolEl>
23.204814

> <Eintl>
8.902043

> <RecConf>
ND

> <projPath>
VHL_maps/

> <NAME_>
VHL_1ERR_12.pdb

$$$$
