VHL_4CI3_6.pdb
  MOLSOFT 04032206383D

 65 67  0  0  1  0  0  0  0  0999 V2000
   16.0913   -6.2138   -5.5664 O   0  0  0  0  0  0  0  0  0  0  0  0
   17.1719   -5.8147   -5.1633 C   0  0  0  0  0  0  0  0  0  0  0  0
   17.3824   -4.6013   -4.5312 N   0  0  0  0  0  0  0  0  0  0  0  0
   16.3322   -3.6015   -4.3088 C   0  0  1  0  0  0  0  0  0  0  0  0
   15.6793   -3.6831   -2.8910 C   0  0  0  0  0  0  0  0  0  0  0  0
   16.6356   -3.2920   -1.7515 C   0  0  0  0  0  0  0  0  0  0  0  0
   14.4583   -2.7509   -2.8342 C   0  0  0  0  0  0  0  0  0  0  0  0
   15.1903   -5.1081   -2.6083 C   0  0  0  0  0  0  0  0  0  0  0  0
   16.9202   -2.2055   -4.5863 C   0  0  0  0  0  0  0  0  0  0  0  0
   17.8771   -1.7804   -3.9541 O   0  0  0  0  0  0  0  0  0  0  0  0
   16.3010   -1.4273   -5.5644 N   0  0  0  0  0  0  0  0  0  0  0  0
   16.4720    0.0133   -5.6159 C   0  0  2  0  0  0  0  0  0  0  0  0
   15.3661    0.6822   -4.7893 C   0  0  0  0  0  0  0  0  0  0  0  0
   14.1809    0.4035   -4.9188 O   0  0  0  0  0  0  0  0  0  0  0  0
   15.8275    1.6651   -3.9340 N   0  0  0  0  0  0  0  0  0  0  0  0
   14.9237    2.5588   -3.2340 C   0  0  0  0  0  0  0  0  0  0  0  0
   14.6699    3.8424   -3.9886 C   0  0  0  0  0  0  0  0  0  0  0  0
   15.3189    4.1425   -5.1849 C   0  0  0  0  0  0  0  0  0  0  0  0
   15.0679    5.3217   -5.8566 C   0  0  0  0  0  0  0  0  0  0  0  0
   14.1672    6.2513   -5.3550 C   0  0  0  0  0  0  0  0  0  0  0  0
   13.9345    7.4917   -6.0824 C   0  0  0  0  0  0  0  0  0  0  0  0
   13.6395    7.7140   -7.4229 C   0  0  0  0  0  0  0  0  0  0  0  0
   13.4155    6.6974   -8.4781 C   0  0  0  0  0  0  0  0  0  0  0  0
   13.5714    9.0408   -7.7904 N   0  0  0  0  0  0  0  0  0  0  0  0
   13.8123    9.8028   -6.7475 C   0  0  0  0  0  0  0  0  0  0  0  0
   14.0889    8.9992   -5.2700 S   0  0  0  0  0  0  0  0  0  0  0  0
   13.5209    5.9644   -4.1548 C   0  0  0  0  0  0  0  0  0  0  0  0
   13.7700    4.7764   -3.4834 C   0  0  0  0  0  0  0  0  0  0  0  0
   16.3038    0.3833   -7.0809 C   0  0  0  0  0  0  0  0  0  0  0  0
   15.5341   -0.7754   -7.7132 C   0  0  1  0  0  0  0  0  0  0  0  0
   16.2083   -1.2114   -8.9001 O   0  0  0  0  0  0  0  0  0  0  0  0
   15.4866   -1.8891   -6.6665 C   0  0  0  0  0  0  0  0  0  0  0  0
   18.4102   -6.6560   -5.3096 C   0  0  0  0  0  0  0  0  0  0  0  0
   18.3117   -4.3955   -4.1885 H   0  0  0  0  0  0  0  0  0  0  0  0
   15.5522   -3.8010   -5.0360 H   0  0  0  0  0  0  0  0  0  0  0  0
   17.5716   -3.8506   -1.8006 H   0  0  0  0  0  0  0  0  0  0  0  0
   16.1896   -3.4956   -0.7725 H   0  0  0  0  0  0  0  0  0  0  0  0
   16.8811   -2.2268   -1.7613 H   0  0  0  0  0  0  0  0  0  0  0  0
   13.7276   -3.0002   -3.6104 H   0  0  0  0  0  0  0  0  0  0  0  0
   14.7375   -1.7025   -2.9684 H   0  0  0  0  0  0  0  0  0  0  0  0
   13.9476   -2.8180   -1.8686 H   0  0  0  0  0  0  0  0  0  0  0  0
   16.0228   -5.8110   -2.5963 H   0  0  0  0  0  0  0  0  0  0  0  0
   14.4900   -5.4515   -3.3734 H   0  0  0  0  0  0  0  0  0  0  0  0
   14.6720   -5.1817   -1.6489 H   0  0  0  0  0  0  0  0  0  0  0  0
   17.4573    0.3036   -5.2337 H   0  0  0  0  0  0  0  0  0  0  0  0
   16.8239    1.8188   -3.8231 H   0  0  0  0  0  0  0  0  0  0  0  0
   13.9751    2.0414   -3.0526 H   0  0  0  0  0  0  0  0  0  0  0  0
   15.3869    2.7869   -2.2685 H   0  0  0  0  0  0  0  0  0  0  0  0
   16.0385    3.4588   -5.6215 H   0  0  0  0  0  0  0  0  0  0  0  0
   15.6032    5.5160   -6.7812 H   0  0  0  0  0  0  0  0  0  0  0  0
   14.3664    6.3498   -8.8895 H   0  0  0  0  0  0  0  0  0  0  0  0
   12.8279    7.1005   -9.3071 H   0  0  0  0  0  0  0  0  0  0  0  0
   12.8903    5.8284   -8.0717 H   0  0  0  0  0  0  0  0  0  0  0  0
   13.8374   10.8810   -6.8084 H   0  0  0  0  0  0  0  0  0  0  0  0
   12.8019    6.6624   -3.7357 H   0  0  0  0  0  0  0  0  0  0  0  0
   13.2465    4.5787   -2.5521 H   0  0  0  0  0  0  0  0  0  0  0  0
   15.7718    1.3308   -7.2169 H   0  0  0  0  0  0  0  0  0  0  0  0
   17.2859    0.5115   -7.5478 H   0  0  0  0  0  0  0  0  0  0  0  0
   14.5218   -0.4750   -7.9966 H   0  0  0  0  0  0  0  0  0  0  0  0
   17.1645   -1.1701   -8.7137 H   0  0  0  0  0  0  0  0  0  0  0  0
   15.8492   -2.8517   -7.0378 H   0  0  0  0  0  0  0  0  0  0  0  0
   14.4703   -2.0130   -6.2810 H   0  0  0  0  0  0  0  0  0  0  0  0
   18.4096   -7.1292   -6.2956 H   0  0  0  0  0  0  0  0  0  0  0  0
   18.4053   -7.4310   -4.5393 H   0  0  0  0  0  0  0  0  0  0  0  0
   19.3190   -6.0548   -5.2206 H   0  0  0  0  0  0  0  0  0  0  0  0
  1  2  2  0  0  0  0
  2  3  1  0  0  0  0
  2 33  1  0  0  0  0
  4  3  1  0  0  0  0
  3 34  1  0  0  0  0
  4  5  1  0  0  0  0
  4 35  1  0  0  0  0
  4  9  1  0  0  0  0
  5  6  1  0  0  0  0
  5  7  1  0  0  0  0
  5  8  1  0  0  0  0
  6 36  1  0  0  0  0
  6 37  1  0  0  0  0
  6 38  1  0  0  0  0
  7 39  1  0  0  0  0
  7 40  1  0  0  0  0
  7 41  1  0  0  0  0
  8 42  1  0  0  0  0
  8 43  1  0  0  0  0
  8 44  1  0  0  0  0
  9 10  2  0  0  0  0
  9 11  1  0  0  0  0
 11 32  1  0  0  0  0
 12 11  1  0  0  0  0
 12 29  1  0  0  0  0
 12 45  1  0  0  0  0
 12 13  1  0  0  0  0
 13 14  2  0  0  0  0
 13 15  1  0  0  0  0
 15 46  1  0  0  0  0
 15 16  1  0  0  0  0
 16 47  1  0  0  0  0
 16 48  1  0  0  0  0
 16 17  1  0  0  0  0
 17 18  1  0  0  0  0
 17 28  2  0  0  0  0
 18 49  1  0  0  0  0
 18 19  2  0  0  0  0
 19 50  1  0  0  0  0
 19 20  1  0  0  0  0
 20 27  2  0  0  0  0
 20 21  1  0  0  0  0
 21 22  2  0  0  0  0
 21 26  1  0  0  0  0
 22 23  1  0  0  0  0
 22 24  1  0  0  0  0
 23 51  1  0  0  0  0
 23 52  1  0  0  0  0
 23 53  1  0  0  0  0
 24 25  2  0  0  0  0
 25 54  1  0  0  0  0
 25 26  1  0  0  0  0
 27 55  1  0  0  0  0
 27 28  1  0  0  0  0
 28 56  1  0  0  0  0
 30 29  1  0  0  0  0
 29 57  1  0  0  0  0
 29 58  1  0  0  0  0
 30 32  1  0  0  0  0
 30 59  1  0  0  0  0
 30 31  1  0  0  0  0
 31 60  1  0  0  0  0
 32 61  1  0  0  0  0
 32 62  1  0  0  0  0
 33 63  1  0  0  0  0
 33 64  1  0  0  0  0
 33 65  1  0  0  0  0
M  ZZC   1 o1
M  ZZC   2 c1
M  ZZC   3 n1
M  ZZC   4 c2
M  ZZC   5 c3
M  ZZC   6 c4
M  ZZC   7 c5
M  ZZC   8 c6
M  ZZC   9 c7
M  ZZC  10 o2
M  ZZC  11 n2
M  ZZC  12 c8
M  ZZC  13 c9
M  ZZC  14 o3
M  ZZC  15 n3
M  ZZC  16 c10
M  ZZC  17 c11
M  ZZC  18 c12
M  ZZC  19 c13
M  ZZC  20 c14
M  ZZC  21 c15
M  ZZC  22 c16
M  ZZC  23 c17
M  ZZC  24 n4
M  ZZC  25 c18
M  ZZC  26 s1
M  ZZC  27 c19
M  ZZC  28 c20
M  ZZC  29 c21
M  ZZC  30 c22
M  ZZC  31 o4
M  ZZC  32 c23
M  ZZC  33 c24
M  ZZC  34 h11
M  ZZC  35 h21
M  ZZC  36 h41
M  ZZC  37 h42
M  ZZC  38 h43
M  ZZC  39 h51
M  ZZC  40 h52
M  ZZC  41 h53
M  ZZC  42 h61
M  ZZC  43 h62
M  ZZC  44 h63
M  ZZC  45 h81
M  ZZC  46 h31
M  ZZC  47 h101
M  ZZC  48 h102
M  ZZC  49 h121
M  ZZC  50 h131
M  ZZC  51 h171
M  ZZC  52 h172
M  ZZC  53 h173
M  ZZC  54 h181
M  ZZC  55 h191
M  ZZC  56 h201
M  ZZC  57 h211
M  ZZC  58 h212
M  ZZC  59 h221
M  ZZC  60 h01
M  ZZC  61 h231
M  ZZC  62 h232
M  ZZC  63 h241
M  ZZC  64 h242
M  ZZC  65 h243
M  ZZM   1 7
M  ZZI   1 81
M  ZZM   2 3
M  ZZI   2 121
M  ZZM   3 10
M  ZZI   3 211
M  ZZM   4 1
M  ZZI   4 113
M  ZZM   5 1
M  ZZI   5 110
M  ZZM   6 1
M  ZZI   6 111
M  ZZM   7 1
M  ZZI   7 111
M  ZZM   8 1
M  ZZI   8 111
M  ZZM   9 3
M  ZZI   9 121
M  ZZM  10 7
M  ZZI  10 81
M  ZZM  11 10
M  ZZI  11 192
M  ZZM  12 1
M  ZZI  12 113
M  ZZM  13 3
M  ZZI  13 121
M  ZZM  14 7
M  ZZI  14 81
M  ZZM  15 10
M  ZZI  15 211
M  ZZM  16 1
M  ZZI  16 112
M  ZZM  17 37
M  ZZI  17 124
M  ZZM  18 37
M  ZZI  18 125
M  ZZM  19 37
M  ZZI  19 125
M  ZZM  20 37
M  ZZI  20 124
M  ZZM  21 63
M  ZZI  21 104
M  ZZM  22 64
M  ZZI  22 105
M  ZZM  23 1
M  ZZI  23 111
M  ZZM  24 66
M  ZZI  24 222
M  ZZM  25 63
M  ZZI  25 104
M  ZZM  26 44
M  ZZI  26 248
M  ZZM  27 37
M  ZZI  27 125
M  ZZM  28 37
M  ZZI  28 125
M  ZZM  29 1
M  ZZI  29 112
M  ZZM  30 1
M  ZZI  30 113
M  ZZM  31 6
M  ZZI  31 60
M  ZZM  32 1
M  ZZI  32 112
M  ZZM  33 1
M  ZZI  33 111
M  ZZM  34 28
M  ZZI  34 11
M  ZZM  35 5
M  ZZI  35 1
M  ZZM  36 5
M  ZZI  36 1
M  ZZM  37 5
M  ZZI  37 1
M  ZZM  38 5
M  ZZI  38 1
M  ZZM  39 5
M  ZZI  39 1
M  ZZM  40 5
M  ZZI  40 1
M  ZZM  41 5
M  ZZI  41 1
M  ZZM  42 5
M  ZZI  42 1
M  ZZM  43 5
M  ZZI  43 1
M  ZZM  44 5
M  ZZI  44 1
M  ZZM  45 5
M  ZZI  45 1
M  ZZM  46 28
M  ZZI  46 11
M  ZZM  47 5
M  ZZI  47 1
M  ZZM  48 5
M  ZZI  48 1
M  ZZM  49 5
M  ZZI  49 1
M  ZZM  50 5
M  ZZI  50 1
M  ZZM  51 5
M  ZZI  51 1
M  ZZM  52 5
M  ZZI  52 1
M  ZZM  53 5
M  ZZI  53 1
M  ZZM  54 5
M  ZZI  54 1
M  ZZM  55 5
M  ZZI  55 1
M  ZZM  56 5
M  ZZI  56 1
M  ZZM  57 5
M  ZZI  57 1
M  ZZM  58 5
M  ZZI  58 1
M  ZZM  59 5
M  ZZI  59 1
M  ZZM  60 21
M  ZZI  60 20
M  ZZM  61 5
M  ZZI  61 1
M  ZZM  62 5
M  ZZI  62 1
M  ZZM  63 5
M  ZZI  63 1
M  ZZM  64 5
M  ZZI  64 1
M  ZZM  65 5
M  ZZI  65 1
M  END
> <IX>
1

> <NAME>
VHL_4CI3_6.pdb

> <Score>
-20.366003

> <Natom>
65

> <Nflex>
8

> <Hbond>
-6.964495

> <Hphob>
-6.762482

> <VwInt>
-30.164468

> <Dsolv>
19.946985

> <SolEl>
9.20128

> <Eintl>
10.194026

> <RecConf>
ND

> <projPath>
VHL_maps/

> <NAME_>
VHL_4CI3_6.pdb

$$$$
