VHL_5EHR_8.pdb
  MOLSOFT 04032206413D

 68 70  0  0  1  0  0  0  0  0999 V2000
   18.4468    2.7362   -4.6093 C   0  0  0  0  0  0  0  0  0  0  0  0
   18.1711    1.3283   -5.0575 C   0  0  0  0  0  0  0  0  0  0  0  0
   19.0674    0.5475   -5.3430 O   0  0  0  0  0  0  0  0  0  0  0  0
   16.8209    1.0457   -5.1160 N   0  0  0  0  0  0  0  0  0  0  0  0
   16.3091   -0.2526   -5.5554 C   0  0  2  0  0  0  0  0  0  0  0  0
   15.5181   -0.1550   -6.8916 C   0  0  0  0  0  0  0  0  0  0  0  0
   14.2157    0.6598   -6.7817 C   0  0  0  0  0  0  0  0  0  0  0  0
   16.3902    0.4985   -7.9717 C   0  0  0  0  0  0  0  0  0  0  0  0
   15.1708   -1.5688   -7.3594 C   0  0  0  0  0  0  0  0  0  0  0  0
   15.4673   -0.8099   -4.3930 C   0  0  0  0  0  0  0  0  0  0  0  0
   14.5855   -0.1386   -3.8712 O   0  0  0  0  0  0  0  0  0  0  0  0
   15.7573   -2.0991   -3.9432 N   0  0  0  0  0  0  0  0  0  0  0  0
   14.9926   -2.7060   -2.8605 C   0  0  2  0  0  0  0  0  0  0  0  0
   15.4218   -2.0754   -1.5304 C   0  0  0  0  0  0  0  0  0  0  0  0
   16.5914   -1.8344   -1.2612 O   0  0  0  0  0  0  0  0  0  0  0  0
   14.3712   -1.8144   -0.6690 N   0  0  0  0  0  0  0  0  0  0  0  0
   14.5554   -1.1172    0.5969 C   0  0  1  0  0  0  0  0  0  0  0  0
   13.5077   -0.0100    0.7033 C   0  0  0  0  0  0  0  0  0  0  0  0
   14.5927   -2.0921    1.7635 C   0  0  0  0  0  0  0  0  0  0  0  0
   15.6537   -2.9878    1.8695 C   0  0  0  0  0  0  0  0  0  0  0  0
   15.7358   -3.8977    2.9073 C   0  0  0  0  0  0  0  0  0  0  0  0
   14.7566   -3.9527    3.8941 C   0  0  0  0  0  0  0  0  0  0  0  0
   14.8176   -4.9471    4.9654 C   0  0  0  0  0  0  0  0  0  0  0  0
   13.8306   -5.7563    5.5220 C   0  0  0  0  0  0  0  0  0  0  0  0
   12.3971   -5.8231    5.1517 C   0  0  0  0  0  0  0  0  0  0  0  0
   14.2590   -6.5980    6.5292 N   0  0  0  0  0  0  0  0  0  0  0  0
   15.5452   -6.4311    6.7318 C   0  0  0  0  0  0  0  0  0  0  0  0
   16.3169   -5.2686    5.7524 S   0  0  0  0  0  0  0  0  0  0  0  0
   13.7072   -3.0441    3.8094 C   0  0  0  0  0  0  0  0  0  0  0  0
   13.6224   -2.1367    2.7653 C   0  0  0  0  0  0  0  0  0  0  0  0
   15.3623   -4.1818   -2.9155 C   0  0  0  0  0  0  0  0  0  0  0  0
   16.7852   -4.1666   -3.4449 C   0  0  1  0  0  0  0  0  0  0  0  0
   17.1062   -5.3985   -4.0875 O   0  0  0  0  0  0  0  0  0  0  0  0
   16.7949   -2.9979   -4.4186 C   0  0  0  0  0  0  0  0  0  0  0  0
   17.9432    3.4446   -5.2744 H   0  0  0  0  0  0  0  0  0  0  0  0
   19.5234    2.9291   -4.6360 H   0  0  0  0  0  0  0  0  0  0  0  0
   18.0858    2.8751   -3.5858 H   0  0  0  0  0  0  0  0  0  0  0  0
   16.1535    1.7431   -4.8007 H   0  0  0  0  0  0  0  0  0  0  0  0
   17.1763   -0.8960   -5.7189 H   0  0  0  0  0  0  0  0  0  0  0  0
   13.4773    0.1753   -6.1361 H   0  0  0  0  0  0  0  0  0  0  0  0
   13.7407    0.7774   -7.7612 H   0  0  0  0  0  0  0  0  0  0  0  0
   14.3952    1.6660   -6.3909 H   0  0  0  0  0  0  0  0  0  0  0  0
   16.6219    1.5345   -7.7186 H   0  0  0  0  0  0  0  0  0  0  0  0
   15.8842    0.5141   -8.9391 H   0  0  0  0  0  0  0  0  0  0  0  0
   17.3452   -0.0197   -8.0995 H   0  0  0  0  0  0  0  0  0  0  0  0
   14.7010   -1.5612   -8.3423 H   0  0  0  0  0  0  0  0  0  0  0  0
   14.4830   -2.0571   -6.6668 H   0  0  0  0  0  0  0  0  0  0  0  0
   16.0626   -2.1945   -7.4374 H   0  0  0  0  0  0  0  0  0  0  0  0
   13.9206   -2.5457   -3.0250 H   0  0  0  0  0  0  0  0  0  0  0  0
   13.4329   -2.1072   -0.9164 H   0  0  0  0  0  0  0  0  0  0  0  0
   15.5298   -0.6166    0.5716 H   0  0  0  0  0  0  0  0  0  0  0  0
   13.6251    0.5713    1.6233 H   0  0  0  0  0  0  0  0  0  0  0  0
   12.4907   -0.4139    0.6798 H   0  0  0  0  0  0  0  0  0  0  0  0
   13.5903    0.6832   -0.1401 H   0  0  0  0  0  0  0  0  0  0  0  0
   16.4438   -2.9858    1.1246 H   0  0  0  0  0  0  0  0  0  0  0  0
   16.5766   -4.5850    2.9196 H   0  0  0  0  0  0  0  0  0  0  0  0
   11.8339   -5.0354    5.6589 H   0  0  0  0  0  0  0  0  0  0  0  0
   11.9632   -6.7849    5.4405 H   0  0  0  0  0  0  0  0  0  0  0  0
   12.2536   -5.7120    4.0745 H   0  0  0  0  0  0  0  0  0  0  0  0
   16.0912   -6.9935    7.4758 H   0  0  0  0  0  0  0  0  0  0  0  0
   12.9335   -3.0284    4.5703 H   0  0  0  0  0  0  0  0  0  0  0  0
   12.7741   -1.4600    2.7529 H   0  0  0  0  0  0  0  0  0  0  0  0
   15.2874   -4.6912   -1.9488 H   0  0  0  0  0  0  0  0  0  0  0  0
   14.7096   -4.7201   -3.6105 H   0  0  0  0  0  0  0  0  0  0  0  0
   17.4891   -3.9957   -2.6244 H   0  0  0  0  0  0  0  0  0  0  0  0
   18.0576   -5.3688   -4.2987 H   0  0  0  0  0  0  0  0  0  0  0  0
   16.5632   -3.3124   -5.4406 H   0  0  0  0  0  0  0  0  0  0  0  0
   17.7666   -2.4949   -4.4287 H   0  0  0  0  0  0  0  0  0  0  0  0
  1 35  1  0  0  0  0
  1 36  1  0  0  0  0
  1 37  1  0  0  0  0
  1  2  1  0  0  0  0
  2  3  2  0  0  0  0
  2  4  1  0  0  0  0
  4 38  1  0  0  0  0
  5  4  1  0  0  0  0
  5 39  1  0  0  0  0
  5  6  1  0  0  0  0
  5 10  1  0  0  0  0
  6  7  1  0  0  0  0
  6  8  1  0  0  0  0
  6  9  1  0  0  0  0
  7 40  1  0  0  0  0
  7 41  1  0  0  0  0
  7 42  1  0  0  0  0
  8 43  1  0  0  0  0
  8 44  1  0  0  0  0
  8 45  1  0  0  0  0
  9 46  1  0  0  0  0
  9 47  1  0  0  0  0
  9 48  1  0  0  0  0
 10 11  2  0  0  0  0
 10 12  1  0  0  0  0
 12 34  1  0  0  0  0
 13 12  1  0  0  0  0
 13 31  1  0  0  0  0
 13 49  1  0  0  0  0
 13 14  1  0  0  0  0
 14 15  2  0  0  0  0
 14 16  1  0  0  0  0
 16 50  1  0  0  0  0
 17 16  1  0  0  0  0
 17 51  1  0  0  0  0
 17 18  1  0  0  0  0
 17 19  1  0  0  0  0
 18 52  1  0  0  0  0
 18 53  1  0  0  0  0
 18 54  1  0  0  0  0
 19 20  1  0  0  0  0
 19 30  2  0  0  0  0
 20 55  1  0  0  0  0
 20 21  2  0  0  0  0
 21 56  1  0  0  0  0
 21 22  1  0  0  0  0
 22 29  2  0  0  0  0
 22 23  1  0  0  0  0
 23 24  2  0  0  0  0
 23 28  1  0  0  0  0
 24 25  1  0  0  0  0
 24 26  1  0  0  0  0
 25 57  1  0  0  0  0
 25 58  1  0  0  0  0
 25 59  1  0  0  0  0
 26 27  2  0  0  0  0
 27 60  1  0  0  0  0
 27 28  1  0  0  0  0
 29 61  1  0  0  0  0
 29 30  1  0  0  0  0
 30 62  1  0  0  0  0
 32 31  1  0  0  0  0
 31 63  1  0  0  0  0
 31 64  1  0  0  0  0
 32 34  1  0  0  0  0
 32 65  1  0  0  0  0
 32 33  1  0  0  0  0
 33 66  1  0  0  0  0
 34 67  1  0  0  0  0
 34 68  1  0  0  0  0
M  ZZC   1 c1
M  ZZC   2 c2
M  ZZC   3 o1
M  ZZC   4 n1
M  ZZC   5 c3
M  ZZC   6 c4
M  ZZC   7 c5
M  ZZC   8 c6
M  ZZC   9 c7
M  ZZC  10 c8
M  ZZC  11 o2
M  ZZC  12 n2
M  ZZC  13 c9
M  ZZC  14 c10
M  ZZC  15 o3
M  ZZC  16 n3
M  ZZC  17 c11
M  ZZC  18 c12
M  ZZC  19 c13
M  ZZC  20 c14
M  ZZC  21 c15
M  ZZC  22 c16
M  ZZC  23 c17
M  ZZC  24 c18
M  ZZC  25 c19
M  ZZC  26 n4
M  ZZC  27 c20
M  ZZC  28 s1
M  ZZC  29 c21
M  ZZC  30 c22
M  ZZC  31 c23
M  ZZC  32 c24
M  ZZC  33 o4
M  ZZC  34 c25
M  ZZC  35 h11
M  ZZC  36 h12
M  ZZC  37 h13
M  ZZC  38 h01
M  ZZC  39 h31
M  ZZC  40 h51
M  ZZC  41 h52
M  ZZC  42 h53
M  ZZC  43 h61
M  ZZC  44 h62
M  ZZC  45 h63
M  ZZC  46 h71
M  ZZC  47 h72
M  ZZC  48 h73
M  ZZC  49 h91
M  ZZC  50 h02
M  ZZC  51 h111
M  ZZC  52 h121
M  ZZC  53 h122
M  ZZC  54 h123
M  ZZC  55 h141
M  ZZC  56 h151
M  ZZC  57 h191
M  ZZC  58 h192
M  ZZC  59 h193
M  ZZC  60 h201
M  ZZC  61 h211
M  ZZC  62 h221
M  ZZC  63 h231
M  ZZC  64 h232
M  ZZC  65 h241
M  ZZC  66 h41
M  ZZC  67 h251
M  ZZC  68 h252
M  ZZM   1 1
M  ZZI   1 111
M  ZZM   2 3
M  ZZI   2 121
M  ZZM   3 7
M  ZZI   3 81
M  ZZM   4 10
M  ZZI   4 211
M  ZZM   5 1
M  ZZI   5 113
M  ZZM   6 1
M  ZZI   6 110
M  ZZM   7 1
M  ZZI   7 111
M  ZZM   8 1
M  ZZI   8 111
M  ZZM   9 1
M  ZZI   9 111
M  ZZM  10 3
M  ZZI  10 121
M  ZZM  11 7
M  ZZI  11 81
M  ZZM  12 10
M  ZZI  12 192
M  ZZM  13 1
M  ZZI  13 113
M  ZZM  14 3
M  ZZI  14 121
M  ZZM  15 7
M  ZZI  15 81
M  ZZM  16 10
M  ZZI  16 211
M  ZZM  17 1
M  ZZI  17 113
M  ZZM  18 1
M  ZZI  18 111
M  ZZM  19 37
M  ZZI  19 124
M  ZZM  20 37
M  ZZI  20 125
M  ZZM  21 37
M  ZZI  21 125
M  ZZM  22 37
M  ZZI  22 124
M  ZZM  23 63
M  ZZI  23 104
M  ZZM  24 64
M  ZZI  24 105
M  ZZM  25 1
M  ZZI  25 111
M  ZZM  26 66
M  ZZI  26 222
M  ZZM  27 63
M  ZZI  27 104
M  ZZM  28 44
M  ZZI  28 248
M  ZZM  29 37
M  ZZI  29 125
M  ZZM  30 37
M  ZZI  30 125
M  ZZM  31 1
M  ZZI  31 112
M  ZZM  32 1
M  ZZI  32 113
M  ZZM  33 6
M  ZZI  33 60
M  ZZM  34 1
M  ZZI  34 112
M  ZZM  35 5
M  ZZI  35 1
M  ZZM  36 5
M  ZZI  36 1
M  ZZM  37 5
M  ZZI  37 1
M  ZZM  38 28
M  ZZI  38 11
M  ZZM  39 5
M  ZZI  39 1
M  ZZM  40 5
M  ZZI  40 1
M  ZZM  41 5
M  ZZI  41 1
M  ZZM  42 5
M  ZZI  42 1
M  ZZM  43 5
M  ZZI  43 1
M  ZZM  44 5
M  ZZI  44 1
M  ZZM  45 5
M  ZZI  45 1
M  ZZM  46 5
M  ZZI  46 1
M  ZZM  47 5
M  ZZI  47 1
M  ZZM  48 5
M  ZZI  48 1
M  ZZM  49 5
M  ZZI  49 1
M  ZZM  50 28
M  ZZI  50 11
M  ZZM  51 5
M  ZZI  51 1
M  ZZM  52 5
M  ZZI  52 1
M  ZZM  53 5
M  ZZI  53 1
M  ZZM  54 5
M  ZZI  54 1
M  ZZM  55 5
M  ZZI  55 1
M  ZZM  56 5
M  ZZI  56 1
M  ZZM  57 5
M  ZZI  57 1
M  ZZM  58 5
M  ZZI  58 1
M  ZZM  59 5
M  ZZI  59 1
M  ZZM  60 5
M  ZZI  60 1
M  ZZM  61 5
M  ZZI  61 1
M  ZZM  62 5
M  ZZI  62 1
M  ZZM  63 5
M  ZZI  63 1
M  ZZM  64 5
M  ZZI  64 1
M  ZZM  65 5
M  ZZI  65 1
M  ZZM  66 21
M  ZZI  66 20
M  ZZM  67 5
M  ZZI  67 1
M  ZZM  68 5
M  ZZI  68 1
M  END
> <IX>
1

> <NAME>
VHL_5EHR_8.pdb

> <Score>
-14.013122

> <Natom>
68

> <Nflex>
8

> <Hbond>
-4.199788

> <Hphob>
-6.425815

> <VwInt>
-28.159331

> <Dsolv>
16.179154

> <SolEl>
13.321227

> <Eintl>
5.584322

> <RecConf>
ND

> <projPath>
VHL_maps/

> <NAME_>
VHL_5EHR_8.pdb

$$$$
