VHL_4QNQ_8.pdb
  MOLSOFT 04032206383D

 68 70  0  0  1  0  0  0  0  0999 V2000
   19.0516   -6.2284   -5.8398 C   0  0  0  0  0  0  0  0  0  0  0  0
   17.7117   -5.5743   -5.6294 C   0  0  0  0  0  0  0  0  0  0  0  0
   16.6785   -6.1665   -5.9015 O   0  0  0  0  0  0  0  0  0  0  0  0
   17.7906   -4.2889   -5.1228 N   0  0  0  0  0  0  0  0  0  0  0  0
   16.6421   -3.4009   -4.9224 C   0  0  1  0  0  0  0  0  0  0  0  0
   15.9995   -3.5155   -3.4986 C   0  0  0  0  0  0  0  0  0  0  0  0
   16.9054   -2.9283   -2.4059 C   0  0  0  0  0  0  0  0  0  0  0  0
   15.7170   -4.9777   -3.1217 C   0  0  0  0  0  0  0  0  0  0  0  0
   14.6519   -2.7798   -3.4639 C   0  0  0  0  0  0  0  0  0  0  0  0
   17.1695   -1.9843   -5.2442 C   0  0  0  0  0  0  0  0  0  0  0  0
   18.2742   -1.6334   -4.8556 O   0  0  0  0  0  0  0  0  0  0  0  0
   16.3640   -1.0922   -5.9562 N   0  0  0  0  0  0  0  0  0  0  0  0
   16.8427    0.2665   -6.2379 C   0  0  2  0  0  0  0  0  0  0  0  0
   16.7694    1.2243   -5.0468 C   0  0  0  0  0  0  0  0  0  0  0  0
   17.4899    2.2098   -4.9817 O   0  0  0  0  0  0  0  0  0  0  0  0
   15.7212    0.9879   -4.1771 N   0  0  0  0  0  0  0  0  0  0  0  0
   15.3898    1.8763   -3.0748 C   0  0  1  0  0  0  0  0  0  0  0  0
   14.2882    2.8461   -3.5051 C   0  0  0  0  0  0  0  0  0  0  0  0
   15.0729    1.0712   -1.8284 C   0  0  0  0  0  0  0  0  0  0  0  0
   13.7749    0.7633   -1.4179 C   0  0  0  0  0  0  0  0  0  0  0  0
   13.5471    0.0187   -0.2721 C   0  0  0  0  0  0  0  0  0  0  0  0
   14.6049   -0.4434    0.4997 C   0  0  0  0  0  0  0  0  0  0  0  0
   14.3591   -1.1973    1.7186 C   0  0  0  0  0  0  0  0  0  0  0  0
   13.7863   -0.8052    2.9208 C   0  0  0  0  0  0  0  0  0  0  0  0
   13.3279    0.5567    3.2862 C   0  0  0  0  0  0  0  0  0  0  0  0
   13.6743   -1.8052    3.8674 N   0  0  0  0  0  0  0  0  0  0  0  0
   14.1770   -2.9218    3.3915 C   0  0  0  0  0  0  0  0  0  0  0  0
   14.8132   -2.8521    1.8080 S   0  0  0  0  0  0  0  0  0  0  0  0
   15.8994   -0.1543    0.0898 C   0  0  0  0  0  0  0  0  0  0  0  0
   16.1261    0.5876   -1.0558 C   0  0  0  0  0  0  0  0  0  0  0  0
   15.9314    0.7895   -7.3432 C   0  0  0  0  0  0  0  0  0  0  0  0
   15.3493   -0.4602   -7.9682 C   0  0  1  0  0  0  0  0  0  0  0  0
   16.2229   -0.9734   -8.9845 O   0  0  0  0  0  0  0  0  0  0  0  0
   15.2466   -1.4392   -6.8110 C   0  0  0  0  0  0  0  0  0  0  0  0
   19.8732   -5.5259   -5.6828 H   0  0  0  0  0  0  0  0  0  0  0  0
   19.1138   -6.5977   -6.8667 H   0  0  0  0  0  0  0  0  0  0  0  0
   19.1563   -7.0690   -5.1491 H   0  0  0  0  0  0  0  0  0  0  0  0
   18.7076   -3.8991   -4.9315 H   0  0  0  0  0  0  0  0  0  0  0  0
   15.9163   -3.6923   -5.6734 H   0  0  0  0  0  0  0  0  0  0  0  0
   16.4734   -3.0709   -1.4102 H   0  0  0  0  0  0  0  0  0  0  0  0
   17.0611   -1.8544   -2.5353 H   0  0  0  0  0  0  0  0  0  0  0  0
   17.8880   -3.4045   -2.4019 H   0  0  0  0  0  0  0  0  0  0  0  0
   15.1927   -5.0536   -2.1634 H   0  0  0  0  0  0  0  0  0  0  0  0
   16.6344   -5.5644   -3.0247 H   0  0  0  0  0  0  0  0  0  0  0  0
   15.0862   -5.4623   -3.8678 H   0  0  0  0  0  0  0  0  0  0  0  0
   14.7748   -1.7054   -3.6344 H   0  0  0  0  0  0  0  0  0  0  0  0
   14.1538   -2.9006   -2.4972 H   0  0  0  0  0  0  0  0  0  0  0  0
   13.9703   -3.1415   -4.2325 H   0  0  0  0  0  0  0  0  0  0  0  0
   17.8854    0.2085   -6.5685 H   0  0  0  0  0  0  0  0  0  0  0  0
   15.1359    0.1779   -4.3360 H   0  0  0  0  0  0  0  0  0  0  0  0
   16.2712    2.4893   -2.8549 H   0  0  0  0  0  0  0  0  0  0  0  0
   14.6268    3.4734   -4.3357 H   0  0  0  0  0  0  0  0  0  0  0  0
   13.9912    3.5076   -2.6847 H   0  0  0  0  0  0  0  0  0  0  0  0
   13.3966    2.3182   -3.8565 H   0  0  0  0  0  0  0  0  0  0  0  0
   12.9158    1.1017   -1.9867 H   0  0  0  0  0  0  0  0  0  0  0  0
   12.5257   -0.2051    0.0194 H   0  0  0  0  0  0  0  0  0  0  0  0
   14.1773    1.2127    3.4989 H   0  0  0  0  0  0  0  0  0  0  0  0
   12.6861    0.5445    4.1718 H   0  0  0  0  0  0  0  0  0  0  0  0
   12.7605    0.9994    2.4628 H   0  0  0  0  0  0  0  0  0  0  0  0
   14.1932   -3.8369    3.9656 H   0  0  0  0  0  0  0  0  0  0  0  0
   16.7509   -0.5002    0.6689 H   0  0  0  0  0  0  0  0  0  0  0  0
   17.1527    0.7915   -1.3483 H   0  0  0  0  0  0  0  0  0  0  0  0
   15.1246    1.4077   -6.9329 H   0  0  0  0  0  0  0  0  0  0  0  0
   16.4866    1.4012   -8.0608 H   0  0  0  0  0  0  0  0  0  0  0  0
   14.3791   -0.2591   -8.4201 H   0  0  0  0  0  0  0  0  0  0  0  0
   17.1366   -0.9217   -8.6447 H   0  0  0  0  0  0  0  0  0  0  0  0
   15.3024   -2.4754   -7.1510 H   0  0  0  0  0  0  0  0  0  0  0  0
   14.3290   -1.2804   -6.2347 H   0  0  0  0  0  0  0  0  0  0  0  0
  1 35  1  0  0  0  0
  1 36  1  0  0  0  0
  1 37  1  0  0  0  0
  1  2  1  0  0  0  0
  2  3  2  0  0  0  0
  2  4  1  0  0  0  0
  4 38  1  0  0  0  0
  5  4  1  0  0  0  0
  5 39  1  0  0  0  0
  5  6  1  0  0  0  0
  5 10  1  0  0  0  0
  6  7  1  0  0  0  0
  6  8  1  0  0  0  0
  6  9  1  0  0  0  0
  7 40  1  0  0  0  0
  7 41  1  0  0  0  0
  7 42  1  0  0  0  0
  8 43  1  0  0  0  0
  8 44  1  0  0  0  0
  8 45  1  0  0  0  0
  9 46  1  0  0  0  0
  9 47  1  0  0  0  0
  9 48  1  0  0  0  0
 10 11  2  0  0  0  0
 10 12  1  0  0  0  0
 12 34  1  0  0  0  0
 13 12  1  0  0  0  0
 13 31  1  0  0  0  0
 13 49  1  0  0  0  0
 13 14  1  0  0  0  0
 14 15  2  0  0  0  0
 14 16  1  0  0  0  0
 16 50  1  0  0  0  0
 17 16  1  0  0  0  0
 17 51  1  0  0  0  0
 17 18  1  0  0  0  0
 17 19  1  0  0  0  0
 18 52  1  0  0  0  0
 18 53  1  0  0  0  0
 18 54  1  0  0  0  0
 19 20  1  0  0  0  0
 19 30  2  0  0  0  0
 20 55  1  0  0  0  0
 20 21  2  0  0  0  0
 21 56  1  0  0  0  0
 21 22  1  0  0  0  0
 22 29  2  0  0  0  0
 22 23  1  0  0  0  0
 23 24  2  0  0  0  0
 23 28  1  0  0  0  0
 24 25  1  0  0  0  0
 24 26  1  0  0  0  0
 25 57  1  0  0  0  0
 25 58  1  0  0  0  0
 25 59  1  0  0  0  0
 26 27  2  0  0  0  0
 27 60  1  0  0  0  0
 27 28  1  0  0  0  0
 29 61  1  0  0  0  0
 29 30  1  0  0  0  0
 30 62  1  0  0  0  0
 32 31  1  0  0  0  0
 31 63  1  0  0  0  0
 31 64  1  0  0  0  0
 32 34  1  0  0  0  0
 32 65  1  0  0  0  0
 32 33  1  0  0  0  0
 33 66  1  0  0  0  0
 34 67  1  0  0  0  0
 34 68  1  0  0  0  0
M  ZZC   1 c1
M  ZZC   2 c2
M  ZZC   3 o1
M  ZZC   4 n1
M  ZZC   5 c3
M  ZZC   6 c4
M  ZZC   7 c5
M  ZZC   8 c6
M  ZZC   9 c7
M  ZZC  10 c8
M  ZZC  11 o2
M  ZZC  12 n2
M  ZZC  13 c9
M  ZZC  14 c10
M  ZZC  15 o3
M  ZZC  16 n3
M  ZZC  17 c11
M  ZZC  18 c12
M  ZZC  19 c13
M  ZZC  20 c14
M  ZZC  21 c15
M  ZZC  22 c16
M  ZZC  23 c17
M  ZZC  24 c18
M  ZZC  25 c19
M  ZZC  26 n4
M  ZZC  27 c20
M  ZZC  28 s1
M  ZZC  29 c21
M  ZZC  30 c22
M  ZZC  31 c23
M  ZZC  32 c24
M  ZZC  33 o4
M  ZZC  34 c25
M  ZZC  35 h11
M  ZZC  36 h12
M  ZZC  37 h13
M  ZZC  38 h01
M  ZZC  39 h31
M  ZZC  40 h51
M  ZZC  41 h52
M  ZZC  42 h53
M  ZZC  43 h61
M  ZZC  44 h62
M  ZZC  45 h63
M  ZZC  46 h71
M  ZZC  47 h72
M  ZZC  48 h73
M  ZZC  49 h91
M  ZZC  50 h02
M  ZZC  51 h111
M  ZZC  52 h121
M  ZZC  53 h122
M  ZZC  54 h123
M  ZZC  55 h141
M  ZZC  56 h151
M  ZZC  57 h191
M  ZZC  58 h192
M  ZZC  59 h193
M  ZZC  60 h201
M  ZZC  61 h211
M  ZZC  62 h221
M  ZZC  63 h231
M  ZZC  64 h232
M  ZZC  65 h241
M  ZZC  66 h41
M  ZZC  67 h251
M  ZZC  68 h252
M  ZZM   1 1
M  ZZI   1 111
M  ZZM   2 3
M  ZZI   2 121
M  ZZM   3 7
M  ZZI   3 81
M  ZZM   4 10
M  ZZI   4 211
M  ZZM   5 1
M  ZZI   5 113
M  ZZM   6 1
M  ZZI   6 110
M  ZZM   7 1
M  ZZI   7 111
M  ZZM   8 1
M  ZZI   8 111
M  ZZM   9 1
M  ZZI   9 111
M  ZZM  10 3
M  ZZI  10 121
M  ZZM  11 7
M  ZZI  11 81
M  ZZM  12 10
M  ZZI  12 192
M  ZZM  13 1
M  ZZI  13 113
M  ZZM  14 3
M  ZZI  14 121
M  ZZM  15 7
M  ZZI  15 81
M  ZZM  16 10
M  ZZI  16 211
M  ZZM  17 1
M  ZZI  17 113
M  ZZM  18 1
M  ZZI  18 111
M  ZZM  19 37
M  ZZI  19 124
M  ZZM  20 37
M  ZZI  20 125
M  ZZM  21 37
M  ZZI  21 125
M  ZZM  22 37
M  ZZI  22 124
M  ZZM  23 63
M  ZZI  23 104
M  ZZM  24 64
M  ZZI  24 105
M  ZZM  25 1
M  ZZI  25 111
M  ZZM  26 66
M  ZZI  26 222
M  ZZM  27 63
M  ZZI  27 104
M  ZZM  28 44
M  ZZI  28 248
M  ZZM  29 37
M  ZZI  29 125
M  ZZM  30 37
M  ZZI  30 125
M  ZZM  31 1
M  ZZI  31 112
M  ZZM  32 1
M  ZZI  32 113
M  ZZM  33 6
M  ZZI  33 60
M  ZZM  34 1
M  ZZI  34 112
M  ZZM  35 5
M  ZZI  35 1
M  ZZM  36 5
M  ZZI  36 1
M  ZZM  37 5
M  ZZI  37 1
M  ZZM  38 28
M  ZZI  38 11
M  ZZM  39 5
M  ZZI  39 1
M  ZZM  40 5
M  ZZI  40 1
M  ZZM  41 5
M  ZZI  41 1
M  ZZM  42 5
M  ZZI  42 1
M  ZZM  43 5
M  ZZI  43 1
M  ZZM  44 5
M  ZZI  44 1
M  ZZM  45 5
M  ZZI  45 1
M  ZZM  46 5
M  ZZI  46 1
M  ZZM  47 5
M  ZZI  47 1
M  ZZM  48 5
M  ZZI  48 1
M  ZZM  49 5
M  ZZI  49 1
M  ZZM  50 28
M  ZZI  50 11
M  ZZM  51 5
M  ZZI  51 1
M  ZZM  52 5
M  ZZI  52 1
M  ZZM  53 5
M  ZZI  53 1
M  ZZM  54 5
M  ZZI  54 1
M  ZZM  55 5
M  ZZI  55 1
M  ZZM  56 5
M  ZZI  56 1
M  ZZM  57 5
M  ZZI  57 1
M  ZZM  58 5
M  ZZI  58 1
M  ZZM  59 5
M  ZZI  59 1
M  ZZM  60 5
M  ZZI  60 1
M  ZZM  61 5
M  ZZI  61 1
M  ZZM  62 5
M  ZZI  62 1
M  ZZM  63 5
M  ZZI  63 1
M  ZZM  64 5
M  ZZI  64 1
M  ZZM  65 5
M  ZZI  65 1
M  ZZM  66 21
M  ZZI  66 20
M  ZZM  67 5
M  ZZI  67 1
M  ZZM  68 5
M  ZZI  68 1
M  END
> <IX>
1

> <NAME>
VHL_4QNQ_8.pdb

> <Score>
-25.573825

> <Natom>
68

> <Nflex>
8

> <Hbond>
-7.939718

> <Hphob>
-6.894951

> <VwInt>
-28.175741

> <Dsolv>
17.477031

> <SolEl>
10.675385

> <Eintl>
3.92582

> <RecConf>
ND

> <projPath>
VHL_maps/

> <NAME_>
VHL_4QNQ_8.pdb

$$$$
