VHL_6Y7K_6.pdb
  MOLSOFT 04032206443D

 61 63  0  0  1  0  0  0  0  0999 V2000
   16.8872   -4.6287   -4.2592 N   0  3  0  0  0  0  0  0  0  0  0  0
   16.0270   -3.4176   -3.9477 C   0  0  1  0  0  0  0  0  0  0  0  0
   15.9303   -3.1754   -2.4090 C   0  0  0  0  0  0  0  0  0  0  0  0
   15.4777   -4.4639   -1.7097 C   0  0  0  0  0  0  0  0  0  0  0  0
   17.2670   -2.7331   -1.7978 C   0  0  0  0  0  0  0  0  0  0  0  0
   14.8860   -2.0992   -2.0817 C   0  0  0  0  0  0  0  0  0  0  0  0
   16.5492   -2.2235   -4.7709 C   0  0  0  0  0  0  0  0  0  0  0  0
   17.7546   -2.0301   -4.8687 O   0  0  0  0  0  0  0  0  0  0  0  0
   15.6107   -1.4553   -5.4632 N   0  0  0  0  0  0  0  0  0  0  0  0
   16.0147   -0.5638   -6.5411 C   0  0  2  0  0  0  0  0  0  0  0  0
   16.4179    0.8263   -6.0426 C   0  0  0  0  0  0  0  0  0  0  0  0
   15.8949    1.3622   -5.0750 O   0  0  0  0  0  0  0  0  0  0  0  0
   17.3716    1.4360   -6.8362 N   0  0  0  0  0  0  0  0  0  0  0  0
   17.8389    2.7871   -6.5721 C   0  0  0  0  0  0  0  0  0  0  0  0
   19.2525    3.0501   -7.0340 C   0  0  0  0  0  0  0  0  0  0  0  0
   19.6774    4.3492   -7.3045 C   0  0  0  0  0  0  0  0  0  0  0  0
   20.9896    4.6144   -7.6715 C   0  0  0  0  0  0  0  0  0  0  0  0
   21.9144    3.5830   -7.7753 C   0  0  0  0  0  0  0  0  0  0  0  0
   23.3010    3.8304   -8.1367 C   0  0  0  0  0  0  0  0  0  0  0  0
   24.3762    4.2330   -7.3576 C   0  0  0  0  0  0  0  0  0  0  0  0
   24.3536    4.5589   -5.9138 C   0  0  0  0  0  0  0  0  0  0  0  0
   25.5840    4.3054   -8.0223 N   0  0  0  0  0  0  0  0  0  0  0  0
   25.4137    3.9841   -9.2850 C   0  0  0  0  0  0  0  0  0  0  0  0
   23.8221    3.5869   -9.7554 S   0  0  0  0  0  0  0  0  0  0  0  0
   21.4920    2.2915   -7.5036 C   0  0  0  0  0  0  0  0  0  0  0  0
   20.1885    2.0288   -7.1354 C   0  0  0  0  0  0  0  0  0  0  0  0
   14.7769   -0.4854   -7.4201 C   0  0  0  0  0  0  0  0  0  0  0  0
   13.6206   -0.5872   -6.4348 C   0  0  1  0  0  0  0  0  0  0  0  0
   12.4842   -1.2191   -7.0195 O   0  0  0  0  0  0  0  0  0  0  0  0
   14.1636   -1.4628   -5.3183 C   0  0  0  0  0  0  0  0  0  0  0  0
   16.9392   -4.7856   -5.2747 H   0  0  0  0  0  0  0  0  0  0  0  0
   16.5282   -5.5014   -3.8486 H   0  0  0  0  0  0  0  0  0  0  0  0
   17.8640   -4.5091   -3.9520 H   0  0  0  0  0  0  0  0  0  0  0  0
   15.0432   -3.7109   -4.3184 H   0  0  0  0  0  0  0  0  0  0  0  0
   15.2330   -4.2824   -0.6590 H   0  0  0  0  0  0  0  0  0  0  0  0
   16.2574   -5.2271   -1.7306 H   0  0  0  0  0  0  0  0  0  0  0  0
   14.5878   -4.8886   -2.1843 H   0  0  0  0  0  0  0  0  0  0  0  0
   17.1919   -2.6257   -0.7108 H   0  0  0  0  0  0  0  0  0  0  0  0
   17.6004   -1.7691   -2.1937 H   0  0  0  0  0  0  0  0  0  0  0  0
   18.0548   -3.4593   -1.9911 H   0  0  0  0  0  0  0  0  0  0  0  0
   15.1679   -1.1271   -2.4996 H   0  0  0  0  0  0  0  0  0  0  0  0
   14.7803   -1.9604   -1.0012 H   0  0  0  0  0  0  0  0  0  0  0  0
   13.9052   -2.3451   -2.4989 H   0  0  0  0  0  0  0  0  0  0  0  0
   16.8564   -1.0051   -7.0860 H   0  0  0  0  0  0  0  0  0  0  0  0
   17.7697    0.9230   -7.6181 H   0  0  0  0  0  0  0  0  0  0  0  0
   17.1458    3.4566   -7.0931 H   0  0  0  0  0  0  0  0  0  0  0  0
   17.7638    2.9928   -5.4990 H   0  0  0  0  0  0  0  0  0  0  0  0
   18.9795    5.1777   -7.2238 H   0  0  0  0  0  0  0  0  0  0  0  0
   21.2875    5.6387   -7.8751 H   0  0  0  0  0  0  0  0  0  0  0  0
   25.3424    4.8704   -5.5649 H   0  0  0  0  0  0  0  0  0  0  0  0
   24.0544    3.6883   -5.3258 H   0  0  0  0  0  0  0  0  0  0  0  0
   23.6531    5.3734   -5.7087 H   0  0  0  0  0  0  0  0  0  0  0  0
   26.2292    3.9722   -9.9939 H   0  0  0  0  0  0  0  0  0  0  0  0
   22.1846    1.4626   -7.5807 H   0  0  0  0  0  0  0  0  0  0  0  0
   19.9112    1.0022   -6.9267 H   0  0  0  0  0  0  0  0  0  0  0  0
   14.7214    0.4254   -8.0256 H   0  0  0  0  0  0  0  0  0  0  0  0
   14.7585   -1.3367   -8.1090 H   0  0  0  0  0  0  0  0  0  0  0  0
   13.3246    0.3967   -6.0537 H   0  0  0  0  0  0  0  0  0  0  0  0
   12.1414   -0.6431   -7.7269 H   0  0  0  0  0  0  0  0  0  0  0  0
   13.7730   -2.4818   -5.3531 H   0  0  0  0  0  0  0  0  0  0  0  0
   13.8983   -1.0355   -4.3500 H   0  0  0  0  0  0  0  0  0  0  0  0
  1 31  1  0  0  0  0
  1 32  1  0  0  0  0
  1 33  1  0  0  0  0
  2  1  1  0  0  0  0
  2 34  1  0  0  0  0
  2  3  1  0  0  0  0
  2  7  1  0  0  0  0
  3  4  1  0  0  0  0
  3  5  1  0  0  0  0
  3  6  1  0  0  0  0
  4 35  1  0  0  0  0
  4 36  1  0  0  0  0
  4 37  1  0  0  0  0
  5 38  1  0  0  0  0
  5 39  1  0  0  0  0
  5 40  1  0  0  0  0
  6 41  1  0  0  0  0
  6 42  1  0  0  0  0
  6 43  1  0  0  0  0
  7  8  2  0  0  0  0
  7  9  1  0  0  0  0
  9 30  1  0  0  0  0
 10  9  1  0  0  0  0
 10 27  1  0  0  0  0
 10 44  1  0  0  0  0
 10 11  1  0  0  0  0
 11 12  2  0  0  0  0
 11 13  1  0  0  0  0
 13 45  1  0  0  0  0
 13 14  1  0  0  0  0
 14 46  1  0  0  0  0
 14 47  1  0  0  0  0
 14 15  1  0  0  0  0
 15 16  1  0  0  0  0
 15 26  2  0  0  0  0
 16 48  1  0  0  0  0
 16 17  2  0  0  0  0
 17 49  1  0  0  0  0
 17 18  1  0  0  0  0
 18 25  2  0  0  0  0
 18 19  1  0  0  0  0
 19 20  2  0  0  0  0
 19 24  1  0  0  0  0
 20 21  1  0  0  0  0
 20 22  1  0  0  0  0
 21 50  1  0  0  0  0
 21 51  1  0  0  0  0
 21 52  1  0  0  0  0
 22 23  2  0  0  0  0
 23 53  1  0  0  0  0
 23 24  1  0  0  0  0
 25 54  1  0  0  0  0
 25 26  1  0  0  0  0
 26 55  1  0  0  0  0
 28 27  1  0  0  0  0
 27 56  1  0  0  0  0
 27 57  1  0  0  0  0
 28 30  1  0  0  0  0
 28 58  1  0  0  0  0
 28 29  1  0  0  0  0
 29 59  1  0  0  0  0
 30 60  1  0  0  0  0
 30 61  1  0  0  0  0
M  ZZC   1 n1
M  ZZC   2 c1
M  ZZC   3 c2
M  ZZC   4 c3
M  ZZC   5 c4
M  ZZC   6 c5
M  ZZC   7 c6
M  ZZC   8 o1
M  ZZC   9 n2
M  ZZC  10 c7
M  ZZC  11 c8
M  ZZC  12 o2
M  ZZC  13 n3
M  ZZC  14 c9
M  ZZC  15 c10
M  ZZC  16 c11
M  ZZC  17 c12
M  ZZC  18 c13
M  ZZC  19 c14
M  ZZC  20 c15
M  ZZC  21 c16
M  ZZC  22 n4
M  ZZC  23 c17
M  ZZC  24 s1
M  ZZC  25 c18
M  ZZC  26 c19
M  ZZC  27 c20
M  ZZC  28 c21
M  ZZC  29 o3
M  ZZC  30 c22
M  ZZC  31 h11
M  ZZC  32 h12
M  ZZC  33 h13
M  ZZC  34 h01
M  ZZC  35 h31
M  ZZC  36 h32
M  ZZC  37 h33
M  ZZC  38 h41
M  ZZC  39 h42
M  ZZC  40 h43
M  ZZC  41 h51
M  ZZC  42 h52
M  ZZC  43 h53
M  ZZC  44 h71
M  ZZC  45 h02
M  ZZC  46 h91
M  ZZC  47 h92
M  ZZC  48 h111
M  ZZC  49 h121
M  ZZC  50 h161
M  ZZC  51 h162
M  ZZC  52 h163
M  ZZC  53 h171
M  ZZC  54 h181
M  ZZC  55 h191
M  ZZC  56 h201
M  ZZC  57 h202
M  ZZC  58 h211
M  ZZC  59 h03
M  ZZC  60 h221
M  ZZC  61 h222
M  ZZM   1 34
M  ZZI   1 231
M  ZZM   2 1
M  ZZI   2 113
M  ZZM   3 1
M  ZZI   3 110
M  ZZM   4 1
M  ZZI   4 111
M  ZZM   5 1
M  ZZI   5 111
M  ZZM   6 1
M  ZZI   6 111
M  ZZM   7 3
M  ZZI   7 121
M  ZZM   8 7
M  ZZI   8 81
M  ZZM   9 10
M  ZZI   9 192
M  ZZM  10 1
M  ZZI  10 113
M  ZZM  11 3
M  ZZI  11 121
M  ZZM  12 7
M  ZZI  12 81
M  ZZM  13 10
M  ZZI  13 211
M  ZZM  14 1
M  ZZI  14 112
M  ZZM  15 37
M  ZZI  15 124
M  ZZM  16 37
M  ZZI  16 125
M  ZZM  17 37
M  ZZI  17 125
M  ZZM  18 37
M  ZZI  18 124
M  ZZM  19 63
M  ZZI  19 104
M  ZZM  20 64
M  ZZI  20 105
M  ZZM  21 1
M  ZZI  21 111
M  ZZM  22 66
M  ZZI  22 222
M  ZZM  23 63
M  ZZI  23 104
M  ZZM  24 44
M  ZZI  24 248
M  ZZM  25 37
M  ZZI  25 125
M  ZZM  26 37
M  ZZI  26 125
M  ZZM  27 1
M  ZZI  27 112
M  ZZM  28 1
M  ZZI  28 113
M  ZZM  29 6
M  ZZI  29 60
M  ZZM  30 1
M  ZZI  30 112
M  ZZM  31 36
M  ZZI  31 17
M  ZZM  32 36
M  ZZI  32 17
M  ZZM  33 36
M  ZZI  33 17
M  ZZM  34 5
M  ZZI  34 1
M  ZZM  35 5
M  ZZI  35 1
M  ZZM  36 5
M  ZZI  36 1
M  ZZM  37 5
M  ZZI  37 1
M  ZZM  38 5
M  ZZI  38 1
M  ZZM  39 5
M  ZZI  39 1
M  ZZM  40 5
M  ZZI  40 1
M  ZZM  41 5
M  ZZI  41 1
M  ZZM  42 5
M  ZZI  42 1
M  ZZM  43 5
M  ZZI  43 1
M  ZZM  44 5
M  ZZI  44 1
M  ZZM  45 28
M  ZZI  45 11
M  ZZM  46 5
M  ZZI  46 1
M  ZZM  47 5
M  ZZI  47 1
M  ZZM  48 5
M  ZZI  48 1
M  ZZM  49 5
M  ZZI  49 1
M  ZZM  50 5
M  ZZI  50 1
M  ZZM  51 5
M  ZZI  51 1
M  ZZM  52 5
M  ZZI  52 1
M  ZZM  53 5
M  ZZI  53 1
M  ZZM  54 5
M  ZZI  54 1
M  ZZM  55 5
M  ZZI  55 1
M  ZZM  56 5
M  ZZI  56 1
M  ZZM  57 5
M  ZZI  57 1
M  ZZM  58 5
M  ZZI  58 1
M  ZZM  59 21
M  ZZI  59 20
M  ZZM  60 5
M  ZZI  60 1
M  ZZM  61 5
M  ZZI  61 1
M  CHG  1   1   1
M  END
> <IX>
1

> <NAME>
VHL_6Y7K_6.pdb

> <Score>
-8.727649

> <Natom>
61

> <Nflex>
7

> <Hbond>
-4.733742

> <Hphob>
-5.531084

> <VwInt>
-26.348022

> <Dsolv>
16.609201

> <SolEl>
18.550499

> <Eintl>
7.337227

> <RecConf>
ND

> <projPath>
VHL_maps/

> <NAME_>
VHL_6Y7K_6.pdb

$$$$
