VHL_5T8E_5.pdb
  MOLSOFT 04032206453D

 75 78  0  0  1  0  0  0  0  0999 V2000
   19.0242   -7.5661   -5.9178 C   0  0  0  0  0  0  0  0  0  0  0  0
   19.5567   -6.1526   -5.8192 C   0  0  0  0  0  0  0  0  0  0  0  0
   18.4783   -5.1105   -6.0294 C   0  0  0  0  0  0  0  0  0  0  0  0
   17.2662   -5.4032   -5.2670 N   0  0  0  0  0  0  0  0  0  0  0  0
   16.5385   -4.4753   -4.5294 C   0  0  0  0  0  0  0  0  0  0  0  0
   15.5919   -4.7799   -3.8172 O   0  0  0  0  0  0  0  0  0  0  0  0
   16.9676   -3.0381   -4.6915 C   0  0  0  0  0  0  0  0  0  0  0  0
   15.9714   -2.0690   -4.0428 C   0  0  2  0  0  0  0  0  0  0  0  0
   16.1805   -0.7365   -4.5753 N   0  0  0  0  0  0  0  0  0  0  0  0
   15.7594   -0.3752   -5.8433 C   0  0  0  0  0  0  0  0  0  0  0  0
   15.0992   -1.0972   -6.5803 O   0  0  0  0  0  0  0  0  0  0  0  0
   16.1733    1.0496   -6.2157 C   0  0  2  0  0  0  0  0  0  0  0  0
   15.2332    1.9877   -5.6202 N   0  0  0  0  0  0  0  0  0  0  0  0
   15.3929    2.4085   -4.2992 C   0  0  0  0  0  0  0  0  0  0  0  0
   16.3524    2.0393   -3.6332 O   0  0  0  0  0  0  0  0  0  0  0  0
   14.3266    3.3347   -3.7074 C   0  0  2  0  0  0  0  0  0  0  0  0
   14.9261    4.7275   -3.3933 C   0  0  0  0  0  0  0  0  0  0  0  0
   13.8973    5.6652   -2.7547 C   0  0  0  0  0  0  0  0  0  0  0  0
   15.4818    5.4008   -4.6498 C   0  0  0  0  0  0  0  0  0  0  0  0
   13.7740    2.6754   -2.4793 C   0  0  0  0  0  0  0  0  0  0  0  0
   12.4365    2.8275   -2.2759 O   0  0  0  0  0  0  0  0  0  0  0  0
   12.0693    2.2140   -1.0776 N   0  0  0  0  0  0  0  0  0  0  0  0
   13.1934    1.6688   -0.5980 C   0  0  0  0  0  0  0  0  0  0  0  0
   13.1784    0.9086    0.6704 C   0  0  0  0  0  0  0  0  0  0  0  0
   14.2943    1.9387   -1.4390 C   0  0  0  0  0  0  0  0  0  0  0  0
   14.2512    2.4361   -6.5941 C   0  0  0  0  0  0  0  0  0  0  0  0
   14.6630    1.8087   -7.9252 C   0  0  1  0  0  0  0  0  0  0  0  0
   14.6715    2.7648   -8.9884 O   0  0  0  0  0  0  0  0  0  0  0  0
   16.0873    1.3305   -7.7016 C   0  0  0  0  0  0  0  0  0  0  0  0
   16.0669   -2.0656   -2.5275 C   0  0  0  0  0  0  0  0  0  0  0  0
   17.2792   -1.8639   -1.8623 C   0  0  0  0  0  0  0  0  0  0  0  0
   17.3546   -1.9282   -0.4821 C   0  0  0  0  0  0  0  0  0  0  0  0
   16.2116   -2.1745    0.2556 C   0  0  0  0  0  0  0  0  0  0  0  0
   16.2977   -2.2738    1.9775 Cl  0  0  0  0  0  0  0  0  0  0  0  0
   14.9964   -2.3409   -0.3802 C   0  0  0  0  0  0  0  0  0  0  0  0
   14.9238   -2.2853   -1.7606 C   0  0  0  0  0  0  0  0  0  0  0  0
   16.7455   -6.7512   -5.3944 C   0  0  0  0  0  0  0  0  0  0  0  0
   17.7993   -7.7739   -5.0444 C   0  0  0  0  0  0  0  0  0  0  0  0
   18.7520   -7.7593   -6.9557 H   0  0  0  0  0  0  0  0  0  0  0  0
   19.8128   -8.2701   -5.6375 H   0  0  0  0  0  0  0  0  0  0  0  0
   19.9815   -6.0180   -4.8298 H   0  0  0  0  0  0  0  0  0  0  0  0
   20.3664   -6.0011   -6.5388 H   0  0  0  0  0  0  0  0  0  0  0  0
   18.8801   -4.1262   -5.7894 H   0  0  0  0  0  0  0  0  0  0  0  0
   18.2056   -5.0947   -7.0801 H   0  0  0  0  0  0  0  0  0  0  0  0
   17.9743   -2.9149   -4.2823 H   0  0  0  0  0  0  0  0  0  0  0  0
   17.0271   -2.8370   -5.7663 H   0  0  0  0  0  0  0  0  0  0  0  0
   14.9551   -2.3608   -4.3365 H   0  0  0  0  0  0  0  0  0  0  0  0
   16.6315   -0.0363   -3.9899 H   0  0  0  0  0  0  0  0  0  0  0  0
   17.1906    1.2263   -5.8454 H   0  0  0  0  0  0  0  0  0  0  0  0
   13.5062    3.4566   -4.4199 H   0  0  0  0  0  0  0  0  0  0  0  0
   15.7560    4.6140   -2.6858 H   0  0  0  0  0  0  0  0  0  0  0  0
   14.3217    6.6599   -2.5886 H   0  0  0  0  0  0  0  0  0  0  0  0
   13.5635    5.2979   -1.7803 H   0  0  0  0  0  0  0  0  0  0  0  0
   13.0148    5.7842   -3.3916 H   0  0  0  0  0  0  0  0  0  0  0  0
   16.2654    4.7882   -5.1060 H   0  0  0  0  0  0  0  0  0  0  0  0
   15.9201    6.3769   -4.4193 H   0  0  0  0  0  0  0  0  0  0  0  0
   14.7081    5.5471   -5.4086 H   0  0  0  0  0  0  0  0  0  0  0  0
   12.7259   -0.0763    0.5221 H   0  0  0  0  0  0  0  0  0  0  0  0
   12.6064    1.4392    1.4376 H   0  0  0  0  0  0  0  0  0  0  0  0
   14.1917    0.7604    1.0542 H   0  0  0  0  0  0  0  0  0  0  0  0
   15.3232    1.6412   -1.2953 H   0  0  0  0  0  0  0  0  0  0  0  0
   13.2621    2.0856   -6.2815 H   0  0  0  0  0  0  0  0  0  0  0  0
   14.2333    3.5293   -6.6316 H   0  0  0  0  0  0  0  0  0  0  0  0
   14.0055    0.9752   -8.1949 H   0  0  0  0  0  0  0  0  0  0  0  0
   13.7468    2.9621   -9.2237 H   0  0  0  0  0  0  0  0  0  0  0  0
   16.7889    2.1318   -7.9563 H   0  0  0  0  0  0  0  0  0  0  0  0
   16.3414    0.4707   -8.3315 H   0  0  0  0  0  0  0  0  0  0  0  0
   18.1906   -1.6655   -2.4180 H   0  0  0  0  0  0  0  0  0  0  0  0
   18.3124   -1.7892    0.0103 H   0  0  0  0  0  0  0  0  0  0  0  0
   14.0993   -2.5254    0.1983 H   0  0  0  0  0  0  0  0  0  0  0  0
   13.9612   -2.4373   -2.2408 H   0  0  0  0  0  0  0  0  0  0  0  0
   15.8701   -6.8702   -4.7647 H   0  0  0  0  0  0  0  0  0  0  0  0
   16.4182   -6.8867   -6.4280 H   0  0  0  0  0  0  0  0  0  0  0  0
   17.4014   -8.7839   -5.1769 H   0  0  0  0  0  0  0  0  0  0  0  0
   18.0661   -7.6627   -3.9915 H   0  0  0  0  0  0  0  0  0  0  0  0
  1 39  1  0  0  0  0
  1 40  1  0  0  0  0
  1  2  1  0  0  0  0
  1 38  1  0  0  0  0
  2 41  1  0  0  0  0
  2 42  1  0  0  0  0
  2  3  1  0  0  0  0
  3 43  1  0  0  0  0
  3 44  1  0  0  0  0
  3  4  1  0  0  0  0
  4 37  1  0  0  0  0
  4  5  1  0  0  0  0
  5  6  2  0  0  0  0
  5  7  1  0  0  0  0
  7 45  1  0  0  0  0
  7 46  1  0  0  0  0
  8  7  1  0  0  0  0
  8 47  1  0  0  0  0
  8 30  1  0  0  0  0
  8  9  1  0  0  0  0
  9 48  1  0  0  0  0
  9 10  1  0  0  0  0
 10 11  2  0  0  0  0
 12 10  1  0  0  0  0
 12 49  1  0  0  0  0
 12 29  1  0  0  0  0
 12 13  1  0  0  0  0
 13 26  1  0  0  0  0
 13 14  1  0  0  0  0
 14 15  2  0  0  0  0
 16 14  1  0  0  0  0
 16 50  1  0  0  0  0
 16 17  1  0  0  0  0
 16 20  1  0  0  0  0
 17 51  1  0  0  0  0
 17 19  1  0  0  0  0
 17 18  1  0  0  0  0
 18 52  1  0  0  0  0
 18 53  1  0  0  0  0
 18 54  1  0  0  0  0
 19 55  1  0  0  0  0
 19 56  1  0  0  0  0
 19 57  1  0  0  0  0
 20 25  2  0  0  0  0
 20 21  1  0  0  0  0
 21 22  1  0  0  0  0
 22 23  2  0  0  0  0
 23 25  1  0  0  0  0
 23 24  1  0  0  0  0
 24 58  1  0  0  0  0
 24 59  1  0  0  0  0
 24 60  1  0  0  0  0
 25 61  1  0  0  0  0
 27 26  1  0  0  0  0
 26 62  1  0  0  0  0
 26 63  1  0  0  0  0
 27 29  1  0  0  0  0
 27 64  1  0  0  0  0
 27 28  1  0  0  0  0
 28 65  1  0  0  0  0
 29 66  1  0  0  0  0
 29 67  1  0  0  0  0
 30 31  1  0  0  0  0
 30 36  2  0  0  0  0
 31 68  1  0  0  0  0
 31 32  2  0  0  0  0
 32 69  1  0  0  0  0
 32 33  1  0  0  0  0
 33 34  1  0  0  0  0
 33 35  2  0  0  0  0
 35 70  1  0  0  0  0
 35 36  1  0  0  0  0
 36 71  1  0  0  0  0
 37 72  1  0  0  0  0
 37 73  1  0  0  0  0
 37 38  1  0  0  0  0
 38 74  1  0  0  0  0
 38 75  1  0  0  0  0
M  ZZC   1 c1
M  ZZC   2 c2
M  ZZC   3 c3
M  ZZC   4 n1
M  ZZC   5 c4
M  ZZC   6 o1
M  ZZC   7 c5
M  ZZC   8 c6
M  ZZC   9 n2
M  ZZC  10 c7
M  ZZC  11 o2
M  ZZC  12 c8
M  ZZC  13 n3
M  ZZC  14 c9
M  ZZC  15 o3
M  ZZC  16 c10
M  ZZC  17 c11
M  ZZC  18 c12
M  ZZC  19 c13
M  ZZC  20 c14
M  ZZC  21 o4
M  ZZC  22 n4
M  ZZC  23 c15
M  ZZC  24 c16
M  ZZC  25 c17
M  ZZC  26 c18
M  ZZC  27 c19
M  ZZC  28 o5
M  ZZC  29 c20
M  ZZC  30 c21
M  ZZC  31 c22
M  ZZC  32 c23
M  ZZC  33 c24
M  ZZC  34 &Cl1
M  ZZC  35 c25
M  ZZC  36 c26
M  ZZC  37 c27
M  ZZC  38 c28
M  ZZC  39 h11
M  ZZC  40 h12
M  ZZC  41 h21
M  ZZC  42 h22
M  ZZC  43 h31
M  ZZC  44 h32
M  ZZC  45 h51
M  ZZC  46 h52
M  ZZC  47 h61
M  ZZC  48 h01
M  ZZC  49 h81
M  ZZC  50 h101
M  ZZC  51 h111
M  ZZC  52 h121
M  ZZC  53 h122
M  ZZC  54 h123
M  ZZC  55 h131
M  ZZC  56 h132
M  ZZC  57 h133
M  ZZC  58 h161
M  ZZC  59 h162
M  ZZC  60 h163
M  ZZC  61 h171
M  ZZC  62 h181
M  ZZC  63 h182
M  ZZC  64 h191
M  ZZC  65 h02
M  ZZC  66 h201
M  ZZC  67 h202
M  ZZC  68 h221
M  ZZC  69 h231
M  ZZC  70 h251
M  ZZC  71 h261
M  ZZC  72 h271
M  ZZC  73 h272
M  ZZC  74 h281
M  ZZC  75 h282
M  ZZM   1 1
M  ZZI   1 112
M  ZZM   2 1
M  ZZI   2 112
M  ZZM   3 1
M  ZZI   3 112
M  ZZM   4 10
M  ZZI   4 192
M  ZZM   5 3
M  ZZI   5 121
M  ZZM   6 7
M  ZZI   6 81
M  ZZM   7 1
M  ZZI   7 112
M  ZZM   8 1
M  ZZI   8 113
M  ZZM   9 10
M  ZZI   9 211
M  ZZM  10 3
M  ZZI  10 121
M  ZZM  11 7
M  ZZI  11 81
M  ZZM  12 1
M  ZZI  12 113
M  ZZM  13 10
M  ZZI  13 192
M  ZZM  14 3
M  ZZI  14 121
M  ZZM  15 7
M  ZZI  15 81
M  ZZM  16 1
M  ZZI  16 113
M  ZZM  17 1
M  ZZI  17 113
M  ZZM  18 1
M  ZZI  18 111
M  ZZM  19 1
M  ZZI  19 111
M  ZZM  20 63
M  ZZI  20 104
M  ZZM  21 59
M  ZZI  21 56
M  ZZM  22 65
M  ZZI  22 207
M  ZZM  23 64
M  ZZI  23 105
M  ZZM  24 1
M  ZZI  24 111
M  ZZM  25 64
M  ZZI  25 105
M  ZZM  26 1
M  ZZI  26 112
M  ZZM  27 1
M  ZZI  27 113
M  ZZM  28 6
M  ZZI  28 60
M  ZZM  29 1
M  ZZI  29 112
M  ZZM  30 37
M  ZZI  30 124
M  ZZM  31 37
M  ZZI  31 125
M  ZZM  32 37
M  ZZI  32 125
M  ZZM  33 37
M  ZZI  33 124
M  ZZM  34 12
M  ZZI  34 92
M  ZZM  35 37
M  ZZI  35 125
M  ZZM  36 37
M  ZZI  36 125
M  ZZM  37 1
M  ZZI  37 112
M  ZZM  38 1
M  ZZI  38 112
M  ZZM  39 5
M  ZZI  39 1
M  ZZM  40 5
M  ZZI  40 1
M  ZZM  41 5
M  ZZI  41 1
M  ZZM  42 5
M  ZZI  42 1
M  ZZM  43 5
M  ZZI  43 1
M  ZZM  44 5
M  ZZI  44 1
M  ZZM  45 5
M  ZZI  45 1
M  ZZM  46 5
M  ZZI  46 1
M  ZZM  47 5
M  ZZI  47 1
M  ZZM  48 28
M  ZZI  48 11
M  ZZM  49 5
M  ZZI  49 1
M  ZZM  50 5
M  ZZI  50 1
M  ZZM  51 5
M  ZZI  51 1
M  ZZM  52 5
M  ZZI  52 1
M  ZZM  53 5
M  ZZI  53 1
M  ZZM  54 5
M  ZZI  54 1
M  ZZM  55 5
M  ZZI  55 1
M  ZZM  56 5
M  ZZI  56 1
M  ZZM  57 5
M  ZZI  57 1
M  ZZM  58 5
M  ZZI  58 1
M  ZZM  59 5
M  ZZI  59 1
M  ZZM  60 5
M  ZZI  60 1
M  ZZM  61 5
M  ZZI  61 1
M  ZZM  62 5
M  ZZI  62 1
M  ZZM  63 5
M  ZZI  63 1
M  ZZM  64 5
M  ZZI  64 1
M  ZZM  65 21
M  ZZI  65 20
M  ZZM  66 5
M  ZZI  66 1
M  ZZM  67 5
M  ZZI  67 1
M  ZZM  68 5
M  ZZI  68 1
M  ZZM  69 5
M  ZZI  69 1
M  ZZM  70 5
M  ZZI  70 1
M  ZZM  71 5
M  ZZI  71 1
M  ZZM  72 5
M  ZZI  72 1
M  ZZM  73 5
M  ZZI  73 1
M  ZZM  74 5
M  ZZI  74 1
M  ZZM  75 5
M  ZZI  75 1
M  END
> <IX>
1

> <NAME>
VHL_5T8E_5.pdb

> <Score>
-4.388698

> <Natom>
75

> <Nflex>
11

> <Hbond>
-3.438342

> <Hphob>
-7.210982

> <VwInt>
-22.423514

> <Dsolv>
18.450691

> <SolEl>
14.567641

> <Eintl>
2.520863

> <RecConf>
ND

> <projPath>
VHL_maps/

> <NAME_>
VHL_5T8E_5.pdb

$$$$
