VHL_3K6P_11.pdb
  MOLSOFT 04032206363D

 61 63  0  0  1  0  0  0  0  0999 V2000
   16.8872   -4.6289   -4.2592 N   0  3  0  0  0  0  0  0  0  0  0  0
   16.0265   -3.4183   -3.9472 C   0  0  1  0  0  0  0  0  0  0  0  0
   15.9307   -3.1763   -2.4083 C   0  0  0  0  0  0  0  0  0  0  0  0
   15.4774   -4.4650   -1.7097 C   0  0  0  0  0  0  0  0  0  0  0  0
   17.2677   -2.7350   -1.7972 C   0  0  0  0  0  0  0  0  0  0  0  0
   14.8873   -2.0995   -2.0803 C   0  0  0  0  0  0  0  0  0  0  0  0
   16.5474   -2.2239   -4.7707 C   0  0  0  0  0  0  0  0  0  0  0  0
   17.7524   -2.0292   -4.8689 O   0  0  0  0  0  0  0  0  0  0  0  0
   15.6076   -1.4565   -5.4621 N   0  0  0  0  0  0  0  0  0  0  0  0
   16.0100   -0.5655   -6.5413 C   0  0  2  0  0  0  0  0  0  0  0  0
   16.4108    0.8255   -6.0434 C   0  0  0  0  0  0  0  0  0  0  0  0
   15.8855    1.3623   -5.0775 O   0  0  0  0  0  0  0  0  0  0  0  0
   17.3667    1.4340   -6.8353 N   0  0  0  0  0  0  0  0  0  0  0  0
   17.8331    2.7855   -6.5716 C   0  0  0  0  0  0  0  0  0  0  0  0
   19.2482    3.0484   -7.0287 C   0  0  0  0  0  0  0  0  0  0  0  0
   20.1827    2.0261   -7.1358 C   0  0  0  0  0  0  0  0  0  0  0  0
   21.4869    2.2890   -7.5011 C   0  0  0  0  0  0  0  0  0  0  0  0
   21.9120    3.5818   -7.7627 C   0  0  0  0  0  0  0  0  0  0  0  0
   23.2999    3.8303   -8.1181 C   0  0  0  0  0  0  0  0  0  0  0  0
   24.3688    4.2436   -7.3359 C   0  0  0  0  0  0  0  0  0  0  0  0
   24.3366    4.5790   -5.8944 C   0  0  0  0  0  0  0  0  0  0  0  0
   25.5803    4.3155   -7.9939 N   0  0  0  0  0  0  0  0  0  0  0  0
   25.4191    3.9829   -9.2549 C   0  0  0  0  0  0  0  0  0  0  0  0
   23.8318    3.5760   -9.7318 S   0  0  0  0  0  0  0  0  0  0  0  0
   20.9888    4.6140   -7.6529 C   0  0  0  0  0  0  0  0  0  0  0  0
   19.6755    4.3484   -7.2904 C   0  0  0  0  0  0  0  0  0  0  0  0
   14.7715   -0.4900   -7.4194 C   0  0  0  0  0  0  0  0  0  0  0  0
   13.6163   -0.5901   -6.4327 C   0  0  1  0  0  0  0  0  0  0  0  0
   12.4790   -1.2218   -7.0156 O   0  0  0  0  0  0  0  0  0  0  0  0
   14.1606   -1.4657   -5.3168 C   0  0  0  0  0  0  0  0  0  0  0  0
   16.9435   -4.7830   -5.2748 H   0  0  0  0  0  0  0  0  0  0  0  0
   16.5248   -5.5024   -3.8529 H   0  0  0  0  0  0  0  0  0  0  0  0
   17.8629   -4.5123   -3.9476 H   0  0  0  0  0  0  0  0  0  0  0  0
   15.0425   -3.7119   -4.3172 H   0  0  0  0  0  0  0  0  0  0  0  0
   15.2318   -4.2834   -0.6592 H   0  0  0  0  0  0  0  0  0  0  0  0
   16.2572   -5.2281   -1.7303 H   0  0  0  0  0  0  0  0  0  0  0  0
   14.5877   -4.8896   -2.1849 H   0  0  0  0  0  0  0  0  0  0  0  0
   17.1936   -2.6285   -0.7101 H   0  0  0  0  0  0  0  0  0  0  0  0
   17.6007   -1.7707   -2.1925 H   0  0  0  0  0  0  0  0  0  0  0  0
   18.0557   -3.4604   -1.9927 H   0  0  0  0  0  0  0  0  0  0  0  0
   15.1687   -1.1279   -2.4996 H   0  0  0  0  0  0  0  0  0  0  0  0
   14.7837   -1.9598   -0.9997 H   0  0  0  0  0  0  0  0  0  0  0  0
   13.9056   -2.3457   -2.4950 H   0  0  0  0  0  0  0  0  0  0  0  0
   16.8523   -1.0062   -7.0858 H   0  0  0  0  0  0  0  0  0  0  0  0
   17.7646    0.9212   -7.6173 H   0  0  0  0  0  0  0  0  0  0  0  0
   17.1418    3.4546   -7.0956 H   0  0  0  0  0  0  0  0  0  0  0  0
   17.7545    2.9924   -5.4990 H   0  0  0  0  0  0  0  0  0  0  0  0
   19.9041    0.9987   -6.9331 H   0  0  0  0  0  0  0  0  0  0  0  0
   22.1785    1.4596   -7.5817 H   0  0  0  0  0  0  0  0  0  0  0  0
   25.3073    4.9520   -5.5553 H   0  0  0  0  0  0  0  0  0  0  0  0
   24.0944    3.6958   -5.2988 H   0  0  0  0  0  0  0  0  0  0  0  0
   23.5903    5.3516   -5.6884 H   0  0  0  0  0  0  0  0  0  0  0  0
   26.2390    3.9686   -9.9586 H   0  0  0  0  0  0  0  0  0  0  0  0
   21.2887    5.6391   -7.8489 H   0  0  0  0  0  0  0  0  0  0  0  0
   18.9786    5.1773   -7.2055 H   0  0  0  0  0  0  0  0  0  0  0  0
   14.7149    0.4197   -8.0265 H   0  0  0  0  0  0  0  0  0  0  0  0
   14.7528   -1.3427   -8.1066 H   0  0  0  0  0  0  0  0  0  0  0  0
   13.3215    0.3942   -6.0516 H   0  0  0  0  0  0  0  0  0  0  0  0
   12.1340   -0.6450   -7.7213 H   0  0  0  0  0  0  0  0  0  0  0  0
   13.7714   -2.4852   -5.3532 H   0  0  0  0  0  0  0  0  0  0  0  0
   13.8944   -1.0401   -4.3479 H   0  0  0  0  0  0  0  0  0  0  0  0
  1 31  1  0  0  0  0
  1 32  1  0  0  0  0
  1 33  1  0  0  0  0
  2  1  1  0  0  0  0
  2 34  1  0  0  0  0
  2  3  1  0  0  0  0
  2  7  1  0  0  0  0
  3  4  1  0  0  0  0
  3  5  1  0  0  0  0
  3  6  1  0  0  0  0
  4 35  1  0  0  0  0
  4 36  1  0  0  0  0
  4 37  1  0  0  0  0
  5 38  1  0  0  0  0
  5 39  1  0  0  0  0
  5 40  1  0  0  0  0
  6 41  1  0  0  0  0
  6 42  1  0  0  0  0
  6 43  1  0  0  0  0
  7  8  2  0  0  0  0
  7  9  1  0  0  0  0
  9 30  1  0  0  0  0
 10  9  1  0  0  0  0
 10 27  1  0  0  0  0
 10 44  1  0  0  0  0
 10 11  1  0  0  0  0
 11 12  2  0  0  0  0
 11 13  1  0  0  0  0
 13 45  1  0  0  0  0
 13 14  1  0  0  0  0
 14 46  1  0  0  0  0
 14 47  1  0  0  0  0
 14 15  1  0  0  0  0
 15 16  1  0  0  0  0
 15 26  2  0  0  0  0
 16 48  1  0  0  0  0
 16 17  2  0  0  0  0
 17 49  1  0  0  0  0
 17 18  1  0  0  0  0
 18 25  2  0  0  0  0
 18 19  1  0  0  0  0
 19 20  2  0  0  0  0
 19 24  1  0  0  0  0
 20 21  1  0  0  0  0
 20 22  1  0  0  0  0
 21 50  1  0  0  0  0
 21 51  1  0  0  0  0
 21 52  1  0  0  0  0
 22 23  2  0  0  0  0
 23 53  1  0  0  0  0
 23 24  1  0  0  0  0
 25 54  1  0  0  0  0
 25 26  1  0  0  0  0
 26 55  1  0  0  0  0
 28 27  1  0  0  0  0
 27 56  1  0  0  0  0
 27 57  1  0  0  0  0
 28 30  1  0  0  0  0
 28 58  1  0  0  0  0
 28 29  1  0  0  0  0
 29 59  1  0  0  0  0
 30 60  1  0  0  0  0
 30 61  1  0  0  0  0
M  ZZC   1 n1
M  ZZC   2 c1
M  ZZC   3 c2
M  ZZC   4 c3
M  ZZC   5 c4
M  ZZC   6 c5
M  ZZC   7 c6
M  ZZC   8 o1
M  ZZC   9 n2
M  ZZC  10 c7
M  ZZC  11 c8
M  ZZC  12 o2
M  ZZC  13 n3
M  ZZC  14 c9
M  ZZC  15 c10
M  ZZC  16 c11
M  ZZC  17 c12
M  ZZC  18 c13
M  ZZC  19 c14
M  ZZC  20 c15
M  ZZC  21 c16
M  ZZC  22 n4
M  ZZC  23 c17
M  ZZC  24 s1
M  ZZC  25 c18
M  ZZC  26 c19
M  ZZC  27 c20
M  ZZC  28 c21
M  ZZC  29 o3
M  ZZC  30 c22
M  ZZC  31 h11
M  ZZC  32 h12
M  ZZC  33 h13
M  ZZC  34 h01
M  ZZC  35 h31
M  ZZC  36 h32
M  ZZC  37 h33
M  ZZC  38 h41
M  ZZC  39 h42
M  ZZC  40 h43
M  ZZC  41 h51
M  ZZC  42 h52
M  ZZC  43 h53
M  ZZC  44 h71
M  ZZC  45 h02
M  ZZC  46 h91
M  ZZC  47 h92
M  ZZC  48 h111
M  ZZC  49 h121
M  ZZC  50 h161
M  ZZC  51 h162
M  ZZC  52 h163
M  ZZC  53 h171
M  ZZC  54 h181
M  ZZC  55 h191
M  ZZC  56 h201
M  ZZC  57 h202
M  ZZC  58 h211
M  ZZC  59 h03
M  ZZC  60 h221
M  ZZC  61 h222
M  ZZM   1 34
M  ZZI   1 231
M  ZZM   2 1
M  ZZI   2 113
M  ZZM   3 1
M  ZZI   3 110
M  ZZM   4 1
M  ZZI   4 111
M  ZZM   5 1
M  ZZI   5 111
M  ZZM   6 1
M  ZZI   6 111
M  ZZM   7 3
M  ZZI   7 121
M  ZZM   8 7
M  ZZI   8 81
M  ZZM   9 10
M  ZZI   9 192
M  ZZM  10 1
M  ZZI  10 113
M  ZZM  11 3
M  ZZI  11 121
M  ZZM  12 7
M  ZZI  12 81
M  ZZM  13 10
M  ZZI  13 211
M  ZZM  14 1
M  ZZI  14 112
M  ZZM  15 37
M  ZZI  15 124
M  ZZM  16 37
M  ZZI  16 125
M  ZZM  17 37
M  ZZI  17 125
M  ZZM  18 37
M  ZZI  18 124
M  ZZM  19 63
M  ZZI  19 104
M  ZZM  20 64
M  ZZI  20 105
M  ZZM  21 1
M  ZZI  21 111
M  ZZM  22 66
M  ZZI  22 222
M  ZZM  23 63
M  ZZI  23 104
M  ZZM  24 44
M  ZZI  24 248
M  ZZM  25 37
M  ZZI  25 125
M  ZZM  26 37
M  ZZI  26 125
M  ZZM  27 1
M  ZZI  27 112
M  ZZM  28 1
M  ZZI  28 113
M  ZZM  29 6
M  ZZI  29 60
M  ZZM  30 1
M  ZZI  30 112
M  ZZM  31 36
M  ZZI  31 17
M  ZZM  32 36
M  ZZI  32 17
M  ZZM  33 36
M  ZZI  33 17
M  ZZM  34 5
M  ZZI  34 1
M  ZZM  35 5
M  ZZI  35 1
M  ZZM  36 5
M  ZZI  36 1
M  ZZM  37 5
M  ZZI  37 1
M  ZZM  38 5
M  ZZI  38 1
M  ZZM  39 5
M  ZZI  39 1
M  ZZM  40 5
M  ZZI  40 1
M  ZZM  41 5
M  ZZI  41 1
M  ZZM  42 5
M  ZZI  42 1
M  ZZM  43 5
M  ZZI  43 1
M  ZZM  44 5
M  ZZI  44 1
M  ZZM  45 28
M  ZZI  45 11
M  ZZM  46 5
M  ZZI  46 1
M  ZZM  47 5
M  ZZI  47 1
M  ZZM  48 5
M  ZZI  48 1
M  ZZM  49 5
M  ZZI  49 1
M  ZZM  50 5
M  ZZI  50 1
M  ZZM  51 5
M  ZZI  51 1
M  ZZM  52 5
M  ZZI  52 1
M  ZZM  53 5
M  ZZI  53 1
M  ZZM  54 5
M  ZZI  54 1
M  ZZM  55 5
M  ZZI  55 1
M  ZZM  56 5
M  ZZI  56 1
M  ZZM  57 5
M  ZZI  57 1
M  ZZM  58 5
M  ZZI  58 1
M  ZZM  59 21
M  ZZI  59 20
M  ZZM  60 5
M  ZZI  60 1
M  ZZM  61 5
M  ZZI  61 1
M  CHG  1   1   1
M  END
> <IX>
1

> <NAME>
VHL_3K6P_11.pdb

> <Score>
-8.703484

> <Natom>
61

> <Nflex>
7

> <Hbond>
-4.740454

> <Hphob>
-5.545908

> <VwInt>
-26.424102

> <Dsolv>
16.528802

> <SolEl>
18.782954

> <Eintl>
7.393955

> <RecConf>
ND

> <projPath>
VHL_maps/

> <NAME_>
VHL_3K6P_11.pdb

$$$$
