VHL_5EHR_21.pdb
  MOLSOFT 04032206403D

 68 70  0  0  1  0  0  0  0  0999 V2000
   19.1166    6.5116   -8.0659 C   0  0  0  0  0  0  0  0  0  0  0  0
   17.6865    6.1004   -8.2855 C   0  0  0  0  0  0  0  0  0  0  0  0
   17.3946    5.1562   -9.0043 O   0  0  0  0  0  0  0  0  0  0  0  0
   16.7782    6.8804   -7.5972 N   0  0  0  0  0  0  0  0  0  0  0  0
   15.3329    6.6763   -7.7341 C   0  0  2  0  0  0  0  0  0  0  0  0
   14.4903    7.8955   -7.2517 C   0  0  0  0  0  0  0  0  0  0  0  0
   13.0031    7.6715   -7.5546 C   0  0  0  0  0  0  0  0  0  0  0  0
   14.6311    8.1681   -5.7439 C   0  0  0  0  0  0  0  0  0  0  0  0
   14.9298    9.1533   -8.0162 C   0  0  0  0  0  0  0  0  0  0  0  0
   15.0359    5.3628   -6.9858 C   0  0  0  0  0  0  0  0  0  0  0  0
   15.4119    5.1780   -5.8343 O   0  0  0  0  0  0  0  0  0  0  0  0
   14.4042    4.3573   -7.7152 N   0  0  0  0  0  0  0  0  0  0  0  0
   14.3689    2.9898   -7.2338 C   0  0  2  0  0  0  0  0  0  0  0  0
   15.6934    2.3229   -7.5784 C   0  0  0  0  0  0  0  0  0  0  0  0
   15.9400    1.9279   -8.7099 O   0  0  0  0  0  0  0  0  0  0  0  0
   16.5815    2.2617   -6.5277 N   0  0  0  0  0  0  0  0  0  0  0  0
   17.7786    1.4519   -6.6089 C   0  0  1  0  0  0  0  0  0  0  0  0
   19.0065    2.2661   -6.2163 C   0  0  0  0  0  0  0  0  0  0  0  0
   17.5295    0.1705   -5.8422 C   0  0  0  0  0  0  0  0  0  0  0  0
   16.8922   -0.8785   -6.4986 C   0  0  0  0  0  0  0  0  0  0  0  0
   16.5502   -2.0403   -5.8373 C   0  0  0  0  0  0  0  0  0  0  0  0
   16.8229   -2.1896   -4.4859 C   0  0  0  0  0  0  0  0  0  0  0  0
   16.4005   -3.3946   -3.7901 C   0  0  0  0  0  0  0  0  0  0  0  0
   16.6611   -4.7356   -4.0417 C   0  0  0  0  0  0  0  0  0  0  0  0
   17.5184   -5.3163   -5.1009 C   0  0  0  0  0  0  0  0  0  0  0  0
   16.0228   -5.6143   -3.1957 N   0  0  0  0  0  0  0  0  0  0  0  0
   15.2961   -4.9500   -2.3285 C   0  0  0  0  0  0  0  0  0  0  0  0
   15.3474   -3.2527   -2.4385 S   0  0  0  0  0  0  0  0  0  0  0  0
   17.4691   -1.1510   -3.8207 C   0  0  0  0  0  0  0  0  0  0  0  0
   17.8152    0.0151   -4.4865 C   0  0  0  0  0  0  0  0  0  0  0  0
   13.2733    2.3032   -8.0241 C   0  0  0  0  0  0  0  0  0  0  0  0
   12.9927    3.2082   -9.2235 C   0  0  1  0  0  0  0  0  0  0  0  0
   11.6105    3.5592   -9.2846 O   0  0  0  0  0  0  0  0  0  0  0  0
   13.8235    4.4644   -9.0336 C   0  0  0  0  0  0  0  0  0  0  0  0
   19.3370    6.5543   -6.9949 H   0  0  0  0  0  0  0  0  0  0  0  0
   19.2878    7.4949   -8.5140 H   0  0  0  0  0  0  0  0  0  0  0  0
   19.7857    5.7836   -8.5341 H   0  0  0  0  0  0  0  0  0  0  0  0
   17.1253    7.6110   -6.9860 H   0  0  0  0  0  0  0  0  0  0  0  0
   15.1637    6.5352   -8.8058 H   0  0  0  0  0  0  0  0  0  0  0  0
   12.3920    8.5127   -7.2132 H   0  0  0  0  0  0  0  0  0  0  0  0
   12.6265    6.7774   -7.0477 H   0  0  0  0  0  0  0  0  0  0  0  0
   12.8237    7.5334   -8.6244 H   0  0  0  0  0  0  0  0  0  0  0  0
   14.2149    7.3556   -5.1412 H   0  0  0  0  0  0  0  0  0  0  0  0
   14.0944    9.0782   -5.4555 H   0  0  0  0  0  0  0  0  0  0  0  0
   15.6745    8.3053   -5.4461 H   0  0  0  0  0  0  0  0  0  0  0  0
   15.9620    9.4366   -7.7898 H   0  0  0  0  0  0  0  0  0  0  0  0
   14.3019   10.0096   -7.7551 H   0  0  0  0  0  0  0  0  0  0  0  0
   14.8561    9.0107   -9.0994 H   0  0  0  0  0  0  0  0  0  0  0  0
   14.1922    2.9541   -6.1523 H   0  0  0  0  0  0  0  0  0  0  0  0
   16.3512    2.7055   -5.6440 H   0  0  0  0  0  0  0  0  0  0  0  0
   17.9263    1.1743   -7.6555 H   0  0  0  0  0  0  0  0  0  0  0  0
   19.9197    1.6817   -6.3679 H   0  0  0  0  0  0  0  0  0  0  0  0
   18.9661    2.5392   -5.1592 H   0  0  0  0  0  0  0  0  0  0  0  0
   19.1108    3.1794   -6.8096 H   0  0  0  0  0  0  0  0  0  0  0  0
   16.6453   -0.7905   -7.5534 H   0  0  0  0  0  0  0  0  0  0  0  0
   16.0493   -2.8264   -6.3936 H   0  0  0  0  0  0  0  0  0  0  0  0
   16.9034   -5.6805   -5.9275 H   0  0  0  0  0  0  0  0  0  0  0  0
   18.0895   -6.1643   -4.7114 H   0  0  0  0  0  0  0  0  0  0  0  0
   18.2344   -4.5900   -5.4956 H   0  0  0  0  0  0  0  0  0  0  0  0
   14.6958   -5.4447   -1.5837 H   0  0  0  0  0  0  0  0  0  0  0  0
   17.7042   -1.2378   -2.7636 H   0  0  0  0  0  0  0  0  0  0  0  0
   18.2920    0.8106   -3.9231 H   0  0  0  0  0  0  0  0  0  0  0  0
   13.5673    1.3002   -8.3488 H   0  0  0  0  0  0  0  0  0  0  0  0
   12.4039    2.1516   -7.3875 H   0  0  0  0  0  0  0  0  0  0  0  0
   13.2510    2.7255  -10.1671 H   0  0  0  0  0  0  0  0  0  0  0  0
   11.2489    3.4751   -8.3848 H   0  0  0  0  0  0  0  0  0  0  0  0
   13.2409    5.3829   -9.1321 H   0  0  0  0  0  0  0  0  0  0  0  0
   14.6473    4.4963   -9.7512 H   0  0  0  0  0  0  0  0  0  0  0  0
  1 35  1  0  0  0  0
  1 36  1  0  0  0  0
  1 37  1  0  0  0  0
  1  2  1  0  0  0  0
  2  3  2  0  0  0  0
  2  4  1  0  0  0  0
  4 38  1  0  0  0  0
  5  4  1  0  0  0  0
  5 39  1  0  0  0  0
  5  6  1  0  0  0  0
  5 10  1  0  0  0  0
  6  7  1  0  0  0  0
  6  8  1  0  0  0  0
  6  9  1  0  0  0  0
  7 40  1  0  0  0  0
  7 41  1  0  0  0  0
  7 42  1  0  0  0  0
  8 43  1  0  0  0  0
  8 44  1  0  0  0  0
  8 45  1  0  0  0  0
  9 46  1  0  0  0  0
  9 47  1  0  0  0  0
  9 48  1  0  0  0  0
 10 11  2  0  0  0  0
 10 12  1  0  0  0  0
 12 34  1  0  0  0  0
 13 12  1  0  0  0  0
 13 31  1  0  0  0  0
 13 49  1  0  0  0  0
 13 14  1  0  0  0  0
 14 15  2  0  0  0  0
 14 16  1  0  0  0  0
 16 50  1  0  0  0  0
 17 16  1  0  0  0  0
 17 51  1  0  0  0  0
 17 18  1  0  0  0  0
 17 19  1  0  0  0  0
 18 52  1  0  0  0  0
 18 53  1  0  0  0  0
 18 54  1  0  0  0  0
 19 20  1  0  0  0  0
 19 30  2  0  0  0  0
 20 55  1  0  0  0  0
 20 21  2  0  0  0  0
 21 56  1  0  0  0  0
 21 22  1  0  0  0  0
 22 29  2  0  0  0  0
 22 23  1  0  0  0  0
 23 24  2  0  0  0  0
 23 28  1  0  0  0  0
 24 25  1  0  0  0  0
 24 26  1  0  0  0  0
 25 57  1  0  0  0  0
 25 58  1  0  0  0  0
 25 59  1  0  0  0  0
 26 27  2  0  0  0  0
 27 60  1  0  0  0  0
 27 28  1  0  0  0  0
 29 61  1  0  0  0  0
 29 30  1  0  0  0  0
 30 62  1  0  0  0  0
 32 31  1  0  0  0  0
 31 63  1  0  0  0  0
 31 64  1  0  0  0  0
 32 34  1  0  0  0  0
 32 65  1  0  0  0  0
 32 33  1  0  0  0  0
 33 66  1  0  0  0  0
 34 67  1  0  0  0  0
 34 68  1  0  0  0  0
M  ZZC   1 c1
M  ZZC   2 c2
M  ZZC   3 o1
M  ZZC   4 n1
M  ZZC   5 c3
M  ZZC   6 c4
M  ZZC   7 c5
M  ZZC   8 c6
M  ZZC   9 c7
M  ZZC  10 c8
M  ZZC  11 o2
M  ZZC  12 n2
M  ZZC  13 c9
M  ZZC  14 c10
M  ZZC  15 o3
M  ZZC  16 n3
M  ZZC  17 c11
M  ZZC  18 c12
M  ZZC  19 c13
M  ZZC  20 c14
M  ZZC  21 c15
M  ZZC  22 c16
M  ZZC  23 c17
M  ZZC  24 c18
M  ZZC  25 c19
M  ZZC  26 n4
M  ZZC  27 c20
M  ZZC  28 s1
M  ZZC  29 c21
M  ZZC  30 c22
M  ZZC  31 c23
M  ZZC  32 c24
M  ZZC  33 o4
M  ZZC  34 c25
M  ZZC  35 h11
M  ZZC  36 h12
M  ZZC  37 h13
M  ZZC  38 h01
M  ZZC  39 h31
M  ZZC  40 h51
M  ZZC  41 h52
M  ZZC  42 h53
M  ZZC  43 h61
M  ZZC  44 h62
M  ZZC  45 h63
M  ZZC  46 h71
M  ZZC  47 h72
M  ZZC  48 h73
M  ZZC  49 h91
M  ZZC  50 h02
M  ZZC  51 h111
M  ZZC  52 h121
M  ZZC  53 h122
M  ZZC  54 h123
M  ZZC  55 h141
M  ZZC  56 h151
M  ZZC  57 h191
M  ZZC  58 h192
M  ZZC  59 h193
M  ZZC  60 h201
M  ZZC  61 h211
M  ZZC  62 h221
M  ZZC  63 h231
M  ZZC  64 h232
M  ZZC  65 h241
M  ZZC  66 h41
M  ZZC  67 h251
M  ZZC  68 h252
M  ZZM   1 1
M  ZZI   1 111
M  ZZM   2 3
M  ZZI   2 121
M  ZZM   3 7
M  ZZI   3 81
M  ZZM   4 10
M  ZZI   4 211
M  ZZM   5 1
M  ZZI   5 113
M  ZZM   6 1
M  ZZI   6 110
M  ZZM   7 1
M  ZZI   7 111
M  ZZM   8 1
M  ZZI   8 111
M  ZZM   9 1
M  ZZI   9 111
M  ZZM  10 3
M  ZZI  10 121
M  ZZM  11 7
M  ZZI  11 81
M  ZZM  12 10
M  ZZI  12 192
M  ZZM  13 1
M  ZZI  13 113
M  ZZM  14 3
M  ZZI  14 121
M  ZZM  15 7
M  ZZI  15 81
M  ZZM  16 10
M  ZZI  16 211
M  ZZM  17 1
M  ZZI  17 113
M  ZZM  18 1
M  ZZI  18 111
M  ZZM  19 37
M  ZZI  19 124
M  ZZM  20 37
M  ZZI  20 125
M  ZZM  21 37
M  ZZI  21 125
M  ZZM  22 37
M  ZZI  22 124
M  ZZM  23 63
M  ZZI  23 104
M  ZZM  24 64
M  ZZI  24 105
M  ZZM  25 1
M  ZZI  25 111
M  ZZM  26 66
M  ZZI  26 222
M  ZZM  27 63
M  ZZI  27 104
M  ZZM  28 44
M  ZZI  28 248
M  ZZM  29 37
M  ZZI  29 125
M  ZZM  30 37
M  ZZI  30 125
M  ZZM  31 1
M  ZZI  31 112
M  ZZM  32 1
M  ZZI  32 113
M  ZZM  33 6
M  ZZI  33 60
M  ZZM  34 1
M  ZZI  34 112
M  ZZM  35 5
M  ZZI  35 1
M  ZZM  36 5
M  ZZI  36 1
M  ZZM  37 5
M  ZZI  37 1
M  ZZM  38 28
M  ZZI  38 11
M  ZZM  39 5
M  ZZI  39 1
M  ZZM  40 5
M  ZZI  40 1
M  ZZM  41 5
M  ZZI  41 1
M  ZZM  42 5
M  ZZI  42 1
M  ZZM  43 5
M  ZZI  43 1
M  ZZM  44 5
M  ZZI  44 1
M  ZZM  45 5
M  ZZI  45 1
M  ZZM  46 5
M  ZZI  46 1
M  ZZM  47 5
M  ZZI  47 1
M  ZZM  48 5
M  ZZI  48 1
M  ZZM  49 5
M  ZZI  49 1
M  ZZM  50 28
M  ZZI  50 11
M  ZZM  51 5
M  ZZI  51 1
M  ZZM  52 5
M  ZZI  52 1
M  ZZM  53 5
M  ZZI  53 1
M  ZZM  54 5
M  ZZI  54 1
M  ZZM  55 5
M  ZZI  55 1
M  ZZM  56 5
M  ZZI  56 1
M  ZZM  57 5
M  ZZI  57 1
M  ZZM  58 5
M  ZZI  58 1
M  ZZM  59 5
M  ZZI  59 1
M  ZZM  60 5
M  ZZI  60 1
M  ZZM  61 5
M  ZZI  61 1
M  ZZM  62 5
M  ZZI  62 1
M  ZZM  63 5
M  ZZI  63 1
M  ZZM  64 5
M  ZZI  64 1
M  ZZM  65 5
M  ZZI  65 1
M  ZZM  66 21
M  ZZI  66 20
M  ZZM  67 5
M  ZZI  67 1
M  ZZM  68 5
M  ZZI  68 1
M  END
> <IX>
1

> <NAME>
VHL_5EHR_21.pdb

> <Score>
-9.519826

> <Natom>
68

> <Nflex>
8

> <Hbond>
-6.765053

> <Hphob>
-6.443041

> <VwInt>
-24.577844

> <Dsolv>
20.707423

> <SolEl>
13.404973

> <Eintl>
12.18765

> <RecConf>
ND

> <projPath>
VHL_maps/

> <NAME_>
VHL_5EHR_21.pdb

$$$$
