VHL_5T8E_33.pdb
  MOLSOFT 04032206423D

 65 67  0  0  1  0  0  0  0  0999 V2000
   18.4028   -6.9339   -5.3597 C   0  0  0  0  0  0  0  0  0  0  0  0
   17.2171   -6.0096   -5.3021 C   0  0  0  0  0  0  0  0  0  0  0  0
   16.1157   -6.3825   -5.6734 O   0  0  0  0  0  0  0  0  0  0  0  0
   17.5058   -4.7610   -4.7841 N   0  0  0  0  0  0  0  0  0  0  0  0
   16.5259   -3.6762   -4.6687 C   0  0  1  0  0  0  0  0  0  0  0  0
   15.8981   -3.5551   -3.2418 C   0  0  0  0  0  0  0  0  0  0  0  0
   14.6677   -2.6345   -3.2766 C   0  0  0  0  0  0  0  0  0  0  0  0
   16.8937   -2.9908   -2.2158 C   0  0  0  0  0  0  0  0  0  0  0  0
   15.4248   -4.9251   -2.7312 C   0  0  0  0  0  0  0  0  0  0  0  0
   17.2158   -2.3796   -5.1355 C   0  0  0  0  0  0  0  0  0  0  0  0
   18.3655   -2.1220   -4.8094 O   0  0  0  0  0  0  0  0  0  0  0  0
   16.4731   -1.4647   -5.8832 N   0  0  0  0  0  0  0  0  0  0  0  0
   17.0308   -0.1627   -6.2295 C   0  0  2  0  0  0  0  0  0  0  0  0
   17.2009    0.8042   -5.0655 C   0  0  0  0  0  0  0  0  0  0  0  0
   16.5403    0.7511   -4.0369 O   0  0  0  0  0  0  0  0  0  0  0  0
   18.1041    1.8065   -5.3651 N   0  0  0  0  0  0  0  0  0  0  0  0
   18.2094    3.0094   -4.5733 C   0  0  0  0  0  0  0  0  0  0  0  0
   17.2701    4.0594   -5.1086 C   0  0  0  0  0  0  0  0  0  0  0  0
   17.5622    4.7392   -6.2883 C   0  0  0  0  0  0  0  0  0  0  0  0
   16.6858    5.6827   -6.7971 C   0  0  0  0  0  0  0  0  0  0  0  0
   15.4969    5.9747   -6.1373 C   0  0  0  0  0  0  0  0  0  0  0  0
   14.6115    7.0132   -6.6429 C   0  0  0  0  0  0  0  0  0  0  0  0
   13.9305    7.1292   -7.8484 C   0  0  0  0  0  0  0  0  0  0  0  0
   13.8945    6.1412   -8.9503 C   0  0  0  0  0  0  0  0  0  0  0  0
   13.2233    8.3045   -8.0063 N   0  0  0  0  0  0  0  0  0  0  0  0
   13.3681    9.0503   -6.9341 C   0  0  0  0  0  0  0  0  0  0  0  0
   14.3151    8.4026   -5.6759 S   0  0  0  0  0  0  0  0  0  0  0  0
   15.1913    5.2770   -4.9729 C   0  0  0  0  0  0  0  0  0  0  0  0
   16.0651    4.3292   -4.4679 C   0  0  0  0  0  0  0  0  0  0  0  0
   16.0427    0.4514   -7.2153 C   0  0  0  0  0  0  0  0  0  0  0  0
   15.3804   -0.7519   -7.8444 C   0  0  1  0  0  0  0  0  0  0  0  0
   16.1799   -1.2307   -8.9350 O   0  0  0  0  0  0  0  0  0  0  0  0
   15.3272   -1.7719   -6.7152 C   0  0  0  0  0  0  0  0  0  0  0  0
   19.3446   -6.3914   -5.2374 H   0  0  0  0  0  0  0  0  0  0  0  0
   18.4197   -7.4343   -6.3316 H   0  0  0  0  0  0  0  0  0  0  0  0
   18.3089   -7.6820   -4.5691 H   0  0  0  0  0  0  0  0  0  0  0  0
   18.4556   -4.5700   -4.4878 H   0  0  0  0  0  0  0  0  0  0  0  0
   15.7418   -3.9174   -5.3727 H   0  0  0  0  0  0  0  0  0  0  0  0
   14.9402   -1.6127   -3.5601 H   0  0  0  0  0  0  0  0  0  0  0  0
   14.1826   -2.5792   -2.2970 H   0  0  0  0  0  0  0  0  0  0  0  0
   13.9208   -2.9729   -3.9995 H   0  0  0  0  0  0  0  0  0  0  0  0
   16.4719   -2.9982   -1.2054 H   0  0  0  0  0  0  0  0  0  0  0  0
   17.1689   -1.9549   -2.4351 H   0  0  0  0  0  0  0  0  0  0  0  0
   17.8142   -3.5767   -2.1849 H   0  0  0  0  0  0  0  0  0  0  0  0
   14.9365   -4.8434   -1.7551 H   0  0  0  0  0  0  0  0  0  0  0  0
   16.2530   -5.6287   -2.6113 H   0  0  0  0  0  0  0  0  0  0  0  0
   14.7001   -5.3732   -3.4138 H   0  0  0  0  0  0  0  0  0  0  0  0
   18.0050   -0.3274   -6.6919 H   0  0  0  0  0  0  0  0  0  0  0  0
   18.6439    1.7569   -6.2227 H   0  0  0  0  0  0  0  0  0  0  0  0
   17.9923    2.7823   -3.5239 H   0  0  0  0  0  0  0  0  0  0  0  0
   19.2457    3.3594   -4.6281 H   0  0  0  0  0  0  0  0  0  0  0  0
   18.4869    4.5383   -6.8215 H   0  0  0  0  0  0  0  0  0  0  0  0
   16.9521    6.2107   -7.7085 H   0  0  0  0  0  0  0  0  0  0  0  0
   14.8862    6.0068   -9.3918 H   0  0  0  0  0  0  0  0  0  0  0  0
   13.2188    6.4701   -9.7454 H   0  0  0  0  0  0  0  0  0  0  0  0
   13.5540    5.1662   -8.5904 H   0  0  0  0  0  0  0  0  0  0  0  0
   12.9190   10.0255   -6.8367 H   0  0  0  0  0  0  0  0  0  0  0  0
   14.2609    5.4670   -4.4450 H   0  0  0  0  0  0  0  0  0  0  0  0
   15.7952    3.7942   -3.5615 H   0  0  0  0  0  0  0  0  0  0  0  0
   15.2924    1.0571   -6.6935 H   0  0  0  0  0  0  0  0  0  0  0  0
   16.5460    1.0925   -7.9470 H   0  0  0  0  0  0  0  0  0  0  0  0
   14.3868   -0.5156   -8.2249 H   0  0  0  0  0  0  0  0  0  0  0  0
   17.1140   -1.1697   -8.6617 H   0  0  0  0  0  0  0  0  0  0  0  0
   15.3876   -2.7955   -7.0923 H   0  0  0  0  0  0  0  0  0  0  0  0
   14.4291   -1.6433   -6.1030 H   0  0  0  0  0  0  0  0  0  0  0  0
  1 34  1  0  0  0  0
  1 35  1  0  0  0  0
  1 36  1  0  0  0  0
  1  2  1  0  0  0  0
  2  3  2  0  0  0  0
  2  4  1  0  0  0  0
  4 37  1  0  0  0  0
  5  4  1  0  0  0  0
  5 38  1  0  0  0  0
  5  6  1  0  0  0  0
  5 10  1  0  0  0  0
  6  7  1  0  0  0  0
  6  8  1  0  0  0  0
  6  9  1  0  0  0  0
  7 39  1  0  0  0  0
  7 40  1  0  0  0  0
  7 41  1  0  0  0  0
  8 42  1  0  0  0  0
  8 43  1  0  0  0  0
  8 44  1  0  0  0  0
  9 45  1  0  0  0  0
  9 46  1  0  0  0  0
  9 47  1  0  0  0  0
 10 11  2  0  0  0  0
 10 12  1  0  0  0  0
 12 33  1  0  0  0  0
 13 12  1  0  0  0  0
 13 30  1  0  0  0  0
 13 48  1  0  0  0  0
 13 14  1  0  0  0  0
 14 15  2  0  0  0  0
 14 16  1  0  0  0  0
 16 49  1  0  0  0  0
 16 17  1  0  0  0  0
 17 50  1  0  0  0  0
 17 51  1  0  0  0  0
 17 18  1  0  0  0  0
 18 19  1  0  0  0  0
 18 29  2  0  0  0  0
 19 52  1  0  0  0  0
 19 20  2  0  0  0  0
 20 53  1  0  0  0  0
 20 21  1  0  0  0  0
 21 28  2  0  0  0  0
 21 22  1  0  0  0  0
 22 23  2  0  0  0  0
 22 27  1  0  0  0  0
 23 24  1  0  0  0  0
 23 25  1  0  0  0  0
 24 54  1  0  0  0  0
 24 55  1  0  0  0  0
 24 56  1  0  0  0  0
 25 26  2  0  0  0  0
 26 57  1  0  0  0  0
 26 27  1  0  0  0  0
 28 58  1  0  0  0  0
 28 29  1  0  0  0  0
 29 59  1  0  0  0  0
 31 30  1  0  0  0  0
 30 60  1  0  0  0  0
 30 61  1  0  0  0  0
 31 33  1  0  0  0  0
 31 62  1  0  0  0  0
 31 32  1  0  0  0  0
 32 63  1  0  0  0  0
 33 64  1  0  0  0  0
 33 65  1  0  0  0  0
M  ZZC   1 c1
M  ZZC   2 c2
M  ZZC   3 o1
M  ZZC   4 n1
M  ZZC   5 c3
M  ZZC   6 c4
M  ZZC   7 c5
M  ZZC   8 c6
M  ZZC   9 c7
M  ZZC  10 c8
M  ZZC  11 o2
M  ZZC  12 n2
M  ZZC  13 c9
M  ZZC  14 c10
M  ZZC  15 o3
M  ZZC  16 n3
M  ZZC  17 c11
M  ZZC  18 c12
M  ZZC  19 c13
M  ZZC  20 c14
M  ZZC  21 c15
M  ZZC  22 c16
M  ZZC  23 c17
M  ZZC  24 c18
M  ZZC  25 n4
M  ZZC  26 c19
M  ZZC  27 s1
M  ZZC  28 c20
M  ZZC  29 c21
M  ZZC  30 c22
M  ZZC  31 c23
M  ZZC  32 o4
M  ZZC  33 c24
M  ZZC  34 h11
M  ZZC  35 h12
M  ZZC  36 h13
M  ZZC  37 h01
M  ZZC  38 h31
M  ZZC  39 h51
M  ZZC  40 h52
M  ZZC  41 h53
M  ZZC  42 h61
M  ZZC  43 h62
M  ZZC  44 h63
M  ZZC  45 h71
M  ZZC  46 h72
M  ZZC  47 h73
M  ZZC  48 h91
M  ZZC  49 h02
M  ZZC  50 h111
M  ZZC  51 h112
M  ZZC  52 h131
M  ZZC  53 h141
M  ZZC  54 h181
M  ZZC  55 h182
M  ZZC  56 h183
M  ZZC  57 h191
M  ZZC  58 h201
M  ZZC  59 h211
M  ZZC  60 h221
M  ZZC  61 h222
M  ZZC  62 h231
M  ZZC  63 h41
M  ZZC  64 h241
M  ZZC  65 h242
M  ZZM   1 1
M  ZZI   1 111
M  ZZM   2 3
M  ZZI   2 121
M  ZZM   3 7
M  ZZI   3 81
M  ZZM   4 10
M  ZZI   4 211
M  ZZM   5 1
M  ZZI   5 113
M  ZZM   6 1
M  ZZI   6 110
M  ZZM   7 1
M  ZZI   7 111
M  ZZM   8 1
M  ZZI   8 111
M  ZZM   9 1
M  ZZI   9 111
M  ZZM  10 3
M  ZZI  10 121
M  ZZM  11 7
M  ZZI  11 81
M  ZZM  12 10
M  ZZI  12 192
M  ZZM  13 1
M  ZZI  13 113
M  ZZM  14 3
M  ZZI  14 121
M  ZZM  15 7
M  ZZI  15 81
M  ZZM  16 10
M  ZZI  16 211
M  ZZM  17 1
M  ZZI  17 112
M  ZZM  18 37
M  ZZI  18 124
M  ZZM  19 37
M  ZZI  19 125
M  ZZM  20 37
M  ZZI  20 125
M  ZZM  21 37
M  ZZI  21 124
M  ZZM  22 63
M  ZZI  22 104
M  ZZM  23 64
M  ZZI  23 105
M  ZZM  24 1
M  ZZI  24 111
M  ZZM  25 66
M  ZZI  25 222
M  ZZM  26 63
M  ZZI  26 104
M  ZZM  27 44
M  ZZI  27 248
M  ZZM  28 37
M  ZZI  28 125
M  ZZM  29 37
M  ZZI  29 125
M  ZZM  30 1
M  ZZI  30 112
M  ZZM  31 1
M  ZZI  31 113
M  ZZM  32 6
M  ZZI  32 60
M  ZZM  33 1
M  ZZI  33 112
M  ZZM  34 5
M  ZZI  34 1
M  ZZM  35 5
M  ZZI  35 1
M  ZZM  36 5
M  ZZI  36 1
M  ZZM  37 28
M  ZZI  37 11
M  ZZM  38 5
M  ZZI  38 1
M  ZZM  39 5
M  ZZI  39 1
M  ZZM  40 5
M  ZZI  40 1
M  ZZM  41 5
M  ZZI  41 1
M  ZZM  42 5
M  ZZI  42 1
M  ZZM  43 5
M  ZZI  43 1
M  ZZM  44 5
M  ZZI  44 1
M  ZZM  45 5
M  ZZI  45 1
M  ZZM  46 5
M  ZZI  46 1
M  ZZM  47 5
M  ZZI  47 1
M  ZZM  48 5
M  ZZI  48 1
M  ZZM  49 28
M  ZZI  49 11
M  ZZM  50 5
M  ZZI  50 1
M  ZZM  51 5
M  ZZI  51 1
M  ZZM  52 5
M  ZZI  52 1
M  ZZM  53 5
M  ZZI  53 1
M  ZZM  54 5
M  ZZI  54 1
M  ZZM  55 5
M  ZZI  55 1
M  ZZM  56 5
M  ZZI  56 1
M  ZZM  57 5
M  ZZI  57 1
M  ZZM  58 5
M  ZZI  58 1
M  ZZM  59 5
M  ZZI  59 1
M  ZZM  60 5
M  ZZI  60 1
M  ZZM  61 5
M  ZZI  61 1
M  ZZM  62 5
M  ZZI  62 1
M  ZZM  63 21
M  ZZI  63 20
M  ZZM  64 5
M  ZZI  64 1
M  ZZM  65 5
M  ZZI  65 1
M  END
> <IX>
1

> <NAME>
VHL_5T8E_33.pdb

> <Score>
-24.511568

> <Natom>
65

> <Nflex>
8

> <Hbond>
-7.862708

> <Hphob>
-6.472685

> <VwInt>
-30.39451

> <Dsolv>
21.244543

> <SolEl>
10.254105

> <Eintl>
4.351962

> <RecConf>
ND

> <projPath>
VHL_maps/

> <NAME_>
VHL_5T8E_33.pdb

$$$$
