VHL_5L2I_9.pdb
  MOLSOFT 04032206423D

 68 70  0  0  1  0  0  0  0  0999 V2000
   15.8055   -6.2170   -5.4602 O   0  0  0  0  0  0  0  0  0  0  0  0
   16.8886   -5.8956   -5.0031 C   0  0  0  0  0  0  0  0  0  0  0  0
   17.1459   -4.7227   -4.3209 N   0  0  0  0  0  0  0  0  0  0  0  0
   16.1660   -3.6504   -4.0795 C   0  0  1  0  0  0  0  0  0  0  0  0
   15.8590   -3.4794   -2.5622 C   0  0  0  0  0  0  0  0  0  0  0  0
   14.7460   -2.4578   -2.3020 C   0  0  0  0  0  0  0  0  0  0  0  0
   17.0908   -3.0326   -1.7621 C   0  0  0  0  0  0  0  0  0  0  0  0
   15.3614   -4.8246   -2.0187 C   0  0  0  0  0  0  0  0  0  0  0  0
   16.7611   -2.4233   -4.7979 C   0  0  0  0  0  0  0  0  0  0  0  0
   17.9687   -2.2179   -4.7865 O   0  0  0  0  0  0  0  0  0  0  0  0
   15.8969   -1.5720   -5.4912 N   0  0  0  0  0  0  0  0  0  0  0  0
   16.4270   -0.6115   -6.4465 C   0  0  2  0  0  0  0  0  0  0  0  0
   16.9231    0.6676   -5.7689 C   0  0  0  0  0  0  0  0  0  0  0  0
   16.5340    1.0260   -4.6656 O   0  0  0  0  0  0  0  0  0  0  0  0
   17.8187    1.3830   -6.5475 N   0  0  0  0  0  0  0  0  0  0  0  0
   18.4273    2.6328   -6.1107 C   0  0  1  0  0  0  0  0  0  0  0  0
   19.8055    2.7973   -6.7564 C   0  0  0  0  0  0  0  0  0  0  0  0
   17.5004    3.8148   -6.3505 C   0  0  0  0  0  0  0  0  0  0  0  0
   16.5402    4.1452   -5.3952 C   0  0  0  0  0  0  0  0  0  0  0  0
   15.6592    5.1953   -5.5842 C   0  0  0  0  0  0  0  0  0  0  0  0
   15.7118    5.9609   -6.7412 C   0  0  0  0  0  0  0  0  0  0  0  0
   14.7796    7.0554   -6.9618 C   0  0  0  0  0  0  0  0  0  0  0  0
   13.8299    7.2314   -7.9566 C   0  0  0  0  0  0  0  0  0  0  0  0
   13.5067    6.2794   -9.0407 C   0  0  0  0  0  0  0  0  0  0  0  0
   13.1346    8.4219   -7.8981 N   0  0  0  0  0  0  0  0  0  0  0  0
   13.5480    9.1213   -6.8652 C   0  0  0  0  0  0  0  0  0  0  0  0
   14.7638    8.4095   -5.9027 S   0  0  0  0  0  0  0  0  0  0  0  0
   16.6677    5.6469   -7.6987 C   0  0  0  0  0  0  0  0  0  0  0  0
   17.5465    4.5944   -7.5068 C   0  0  0  0  0  0  0  0  0  0  0  0
   15.2678   -0.3520   -7.3959 C   0  0  0  0  0  0  0  0  0  0  0  0
   14.0367   -0.5044   -6.5186 C   0  0  1  0  0  0  0  0  0  0  0  0
   12.9338   -0.9836   -7.2858 O   0  0  0  0  0  0  0  0  0  0  0  0
   14.4464   -1.5261   -5.4673 C   0  0  0  0  0  0  0  0  0  0  0  0
   18.0837   -6.7999   -5.1216 C   0  0  0  0  0  0  0  0  0  0  0  0
   18.1055   -4.5425   -4.0486 H   0  0  0  0  0  0  0  0  0  0  0  0
   15.2426   -3.9405   -4.5786 H   0  0  0  0  0  0  0  0  0  0  0  0
   13.8349   -2.7108   -2.8531 H   0  0  0  0  0  0  0  0  0  0  0  0
   15.0561   -1.4451   -2.5738 H   0  0  0  0  0  0  0  0  0  0  0  0
   14.4752   -2.4236   -1.2415 H   0  0  0  0  0  0  0  0  0  0  0  0
   17.4472   -2.0556   -2.0822 H   0  0  0  0  0  0  0  0  0  0  0  0
   17.9232   -3.7325   -1.8875 H   0  0  0  0  0  0  0  0  0  0  0  0
   16.8795   -2.9706   -0.6901 H   0  0  0  0  0  0  0  0  0  0  0  0
   16.1242   -5.6017   -2.0959 H   0  0  0  0  0  0  0  0  0  0  0  0
   14.4822   -5.1788   -2.5664 H   0  0  0  0  0  0  0  0  0  0  0  0
   15.0784   -4.7425   -0.9670 H   0  0  0  0  0  0  0  0  0  0  0  0
   17.2692   -1.0576   -6.9800 H   0  0  0  0  0  0  0  0  0  0  0  0
   18.1130    0.9902   -7.4365 H   0  0  0  0  0  0  0  0  0  0  0  0
   18.5939    2.5505   -5.0302 H   0  0  0  0  0  0  0  0  0  0  0  0
   20.2902    3.7146   -6.4160 H   0  0  0  0  0  0  0  0  0  0  0  0
   19.7334    2.8405   -7.8476 H   0  0  0  0  0  0  0  0  0  0  0  0
   20.4883    1.9851   -6.4951 H   0  0  0  0  0  0  0  0  0  0  0  0
   16.4650    3.5709   -4.4765 H   0  0  0  0  0  0  0  0  0  0  0  0
   14.9170    5.4031   -4.8187 H   0  0  0  0  0  0  0  0  0  0  0  0
   14.2904    6.2821   -9.8021 H   0  0  0  0  0  0  0  0  0  0  0  0
   12.5648    6.5453   -9.5221 H   0  0  0  0  0  0  0  0  0  0  0  0
   13.4023    5.2610   -8.6548 H   0  0  0  0  0  0  0  0  0  0  0  0
   13.1481   10.0954   -6.6263 H   0  0  0  0  0  0  0  0  0  0  0  0
   16.7405    6.2331   -8.6111 H   0  0  0  0  0  0  0  0  0  0  0  0
   18.2769    4.3969   -8.2827 H   0  0  0  0  0  0  0  0  0  0  0  0
   15.3060    0.6301   -7.8787 H   0  0  0  0  0  0  0  0  0  0  0  0
   15.2545   -1.1015   -8.1959 H   0  0  0  0  0  0  0  0  0  0  0  0
   13.7689    0.4558   -6.0619 H   0  0  0  0  0  0  0  0  0  0  0  0
   12.1136   -0.7142   -6.8354 H   0  0  0  0  0  0  0  0  0  0  0  0
   14.0262   -2.5178   -5.6321 H   0  0  0  0  0  0  0  0  0  0  0  0
   14.1116   -1.1833   -4.4891 H   0  0  0  0  0  0  0  0  0  0  0  0
   18.0037   -7.4448   -6.0021 H   0  0  0  0  0  0  0  0  0  0  0  0
   18.1491   -7.4346   -4.2329 H   0  0  0  0  0  0  0  0  0  0  0  0
   18.9859   -6.1878   -5.1936 H   0  0  0  0  0  0  0  0  0  0  0  0
  1  2  2  0  0  0  0
  2  3  1  0  0  0  0
  2 34  1  0  0  0  0
  4  3  1  0  0  0  0
  3 35  1  0  0  0  0
  4  5  1  0  0  0  0
  4 36  1  0  0  0  0
  4  9  1  0  0  0  0
  5  6  1  0  0  0  0
  5  7  1  0  0  0  0
  5  8  1  0  0  0  0
  6 37  1  0  0  0  0
  6 38  1  0  0  0  0
  6 39  1  0  0  0  0
  7 40  1  0  0  0  0
  7 41  1  0  0  0  0
  7 42  1  0  0  0  0
  8 43  1  0  0  0  0
  8 44  1  0  0  0  0
  8 45  1  0  0  0  0
  9 10  2  0  0  0  0
  9 11  1  0  0  0  0
 11 33  1  0  0  0  0
 12 11  1  0  0  0  0
 12 30  1  0  0  0  0
 12 46  1  0  0  0  0
 12 13  1  0  0  0  0
 13 14  2  0  0  0  0
 13 15  1  0  0  0  0
 15 47  1  0  0  0  0
 16 15  1  0  0  0  0
 16 48  1  0  0  0  0
 16 17  1  0  0  0  0
 16 18  1  0  0  0  0
 17 49  1  0  0  0  0
 17 50  1  0  0  0  0
 17 51  1  0  0  0  0
 18 19  1  0  0  0  0
 18 29  2  0  0  0  0
 19 52  1  0  0  0  0
 19 20  2  0  0  0  0
 20 53  1  0  0  0  0
 20 21  1  0  0  0  0
 21 28  2  0  0  0  0
 21 22  1  0  0  0  0
 22 23  2  0  0  0  0
 22 27  1  0  0  0  0
 23 24  1  0  0  0  0
 23 25  1  0  0  0  0
 24 54  1  0  0  0  0
 24 55  1  0  0  0  0
 24 56  1  0  0  0  0
 25 26  2  0  0  0  0
 26 57  1  0  0  0  0
 26 27  1  0  0  0  0
 28 58  1  0  0  0  0
 28 29  1  0  0  0  0
 29 59  1  0  0  0  0
 31 30  1  0  0  0  0
 30 60  1  0  0  0  0
 30 61  1  0  0  0  0
 31 33  1  0  0  0  0
 31 62  1  0  0  0  0
 31 32  1  0  0  0  0
 32 63  1  0  0  0  0
 33 64  1  0  0  0  0
 33 65  1  0  0  0  0
 34 66  1  0  0  0  0
 34 67  1  0  0  0  0
 34 68  1  0  0  0  0
M  ZZC   1 o1
M  ZZC   2 c1
M  ZZC   3 n1
M  ZZC   4 c2
M  ZZC   5 c3
M  ZZC   6 c4
M  ZZC   7 c5
M  ZZC   8 c6
M  ZZC   9 c7
M  ZZC  10 o2
M  ZZC  11 n2
M  ZZC  12 c8
M  ZZC  13 c9
M  ZZC  14 o3
M  ZZC  15 n3
M  ZZC  16 c10
M  ZZC  17 c11
M  ZZC  18 c12
M  ZZC  19 c13
M  ZZC  20 c14
M  ZZC  21 c15
M  ZZC  22 c16
M  ZZC  23 c17
M  ZZC  24 c18
M  ZZC  25 n4
M  ZZC  26 c19
M  ZZC  27 s1
M  ZZC  28 c20
M  ZZC  29 c21
M  ZZC  30 c22
M  ZZC  31 c23
M  ZZC  32 o4
M  ZZC  33 c24
M  ZZC  34 c25
M  ZZC  35 h11
M  ZZC  36 h21
M  ZZC  37 h41
M  ZZC  38 h42
M  ZZC  39 h43
M  ZZC  40 h51
M  ZZC  41 h52
M  ZZC  42 h53
M  ZZC  43 h61
M  ZZC  44 h62
M  ZZC  45 h63
M  ZZC  46 h81
M  ZZC  47 h31
M  ZZC  48 h101
M  ZZC  49 h111
M  ZZC  50 h112
M  ZZC  51 h113
M  ZZC  52 h131
M  ZZC  53 h141
M  ZZC  54 h181
M  ZZC  55 h182
M  ZZC  56 h183
M  ZZC  57 h191
M  ZZC  58 h201
M  ZZC  59 h211
M  ZZC  60 h221
M  ZZC  61 h222
M  ZZC  62 h231
M  ZZC  63 h01
M  ZZC  64 h241
M  ZZC  65 h242
M  ZZC  66 h251
M  ZZC  67 h252
M  ZZC  68 h253
M  ZZM   1 7
M  ZZI   1 81
M  ZZM   2 3
M  ZZI   2 121
M  ZZM   3 10
M  ZZI   3 211
M  ZZM   4 1
M  ZZI   4 113
M  ZZM   5 1
M  ZZI   5 110
M  ZZM   6 1
M  ZZI   6 111
M  ZZM   7 1
M  ZZI   7 111
M  ZZM   8 1
M  ZZI   8 111
M  ZZM   9 3
M  ZZI   9 121
M  ZZM  10 7
M  ZZI  10 81
M  ZZM  11 10
M  ZZI  11 192
M  ZZM  12 1
M  ZZI  12 113
M  ZZM  13 3
M  ZZI  13 121
M  ZZM  14 7
M  ZZI  14 81
M  ZZM  15 10
M  ZZI  15 211
M  ZZM  16 1
M  ZZI  16 113
M  ZZM  17 1
M  ZZI  17 111
M  ZZM  18 37
M  ZZI  18 124
M  ZZM  19 37
M  ZZI  19 125
M  ZZM  20 37
M  ZZI  20 125
M  ZZM  21 37
M  ZZI  21 124
M  ZZM  22 63
M  ZZI  22 104
M  ZZM  23 64
M  ZZI  23 105
M  ZZM  24 1
M  ZZI  24 111
M  ZZM  25 66
M  ZZI  25 222
M  ZZM  26 63
M  ZZI  26 104
M  ZZM  27 44
M  ZZI  27 248
M  ZZM  28 37
M  ZZI  28 125
M  ZZM  29 37
M  ZZI  29 125
M  ZZM  30 1
M  ZZI  30 112
M  ZZM  31 1
M  ZZI  31 113
M  ZZM  32 6
M  ZZI  32 60
M  ZZM  33 1
M  ZZI  33 112
M  ZZM  34 1
M  ZZI  34 111
M  ZZM  35 28
M  ZZI  35 11
M  ZZM  36 5
M  ZZI  36 1
M  ZZM  37 5
M  ZZI  37 1
M  ZZM  38 5
M  ZZI  38 1
M  ZZM  39 5
M  ZZI  39 1
M  ZZM  40 5
M  ZZI  40 1
M  ZZM  41 5
M  ZZI  41 1
M  ZZM  42 5
M  ZZI  42 1
M  ZZM  43 5
M  ZZI  43 1
M  ZZM  44 5
M  ZZI  44 1
M  ZZM  45 5
M  ZZI  45 1
M  ZZM  46 5
M  ZZI  46 1
M  ZZM  47 28
M  ZZI  47 11
M  ZZM  48 5
M  ZZI  48 1
M  ZZM  49 5
M  ZZI  49 1
M  ZZM  50 5
M  ZZI  50 1
M  ZZM  51 5
M  ZZI  51 1
M  ZZM  52 5
M  ZZI  52 1
M  ZZM  53 5
M  ZZI  53 1
M  ZZM  54 5
M  ZZI  54 1
M  ZZM  55 5
M  ZZI  55 1
M  ZZM  56 5
M  ZZI  56 1
M  ZZM  57 5
M  ZZI  57 1
M  ZZM  58 5
M  ZZI  58 1
M  ZZM  59 5
M  ZZI  59 1
M  ZZM  60 5
M  ZZI  60 1
M  ZZM  61 5
M  ZZI  61 1
M  ZZM  62 5
M  ZZI  62 1
M  ZZM  63 21
M  ZZI  63 20
M  ZZM  64 5
M  ZZI  64 1
M  ZZM  65 5
M  ZZI  65 1
M  ZZM  66 5
M  ZZI  66 1
M  ZZM  67 5
M  ZZI  67 1
M  ZZM  68 5
M  ZZI  68 1
M  END
> <IX>
1

> <NAME>
VHL_5L2I_9.pdb

> <Score>
-2.677765

> <Natom>
68

> <Nflex>
8

> <Hbond>
-5.018361

> <Hphob>
-6.705242

> <VwInt>
-28.119173

> <Dsolv>
22.875077

> <SolEl>
23.343699

> <Eintl>
8.778706

> <RecConf>
ND

> <projPath>
VHL_maps/

> <NAME_>
VHL_5L2I_9.pdb

$$$$
