VHL_1ERR_4.pdb
  MOLSOFT 04032206373D

 68 70  0  0  1  0  0  0  0  0999 V2000
   16.0827   -6.2879   -5.6262 O   0  0  0  0  0  0  0  0  0  0  0  0
   17.1785   -5.8771   -5.2796 C   0  0  0  0  0  0  0  0  0  0  0  0
   17.4213   -4.6290   -4.7344 N   0  0  0  0  0  0  0  0  0  0  0  0
   16.3945   -3.6027   -4.5157 C   0  0  1  0  0  0  0  0  0  0  0  0
   15.8081   -3.6283   -3.0667 C   0  0  0  0  0  0  0  0  0  0  0  0
   15.4034   -5.0518   -2.6567 C   0  0  0  0  0  0  0  0  0  0  0  0
   14.5377   -2.7699   -2.9996 C   0  0  0  0  0  0  0  0  0  0  0  0
   16.8085   -3.1110   -2.0221 C   0  0  0  0  0  0  0  0  0  0  0  0
   17.0283   -2.2457   -4.8986 C   0  0  0  0  0  0  0  0  0  0  0  0
   18.1295   -1.9291   -4.4738 O   0  0  0  0  0  0  0  0  0  0  0  0
   16.3062   -1.3640   -5.7110 N   0  0  0  0  0  0  0  0  0  0  0  0
   16.8255   -0.0263   -6.0147 C   0  0  2  0  0  0  0  0  0  0  0  0
   16.7797    0.9508   -4.8361 C   0  0  0  0  0  0  0  0  0  0  0  0
   17.5779    1.8728   -4.7477 O   0  0  0  0  0  0  0  0  0  0  0  0
   15.6747    0.8179   -4.0141 N   0  0  0  0  0  0  0  0  0  0  0  0
   15.3704    1.7419   -2.9318 C   0  0  1  0  0  0  0  0  0  0  0  0
   14.2825    2.7183   -3.3805 C   0  0  0  0  0  0  0  0  0  0  0  0
   15.0488    0.9788   -1.6597 C   0  0  0  0  0  0  0  0  0  0  0  0
   16.0987    0.4885   -0.8869 C   0  0  0  0  0  0  0  0  0  0  0  0
   15.8678   -0.2299    0.2730 C   0  0  0  0  0  0  0  0  0  0  0  0
   14.5718   -0.4882    0.6989 C   0  0  0  0  0  0  0  0  0  0  0  0
   14.3206   -1.2416    1.9176 C   0  0  0  0  0  0  0  0  0  0  0  0
   13.7588   -0.8496    3.1254 C   0  0  0  0  0  0  0  0  0  0  0  0
   13.3196    0.5148    3.5039 C   0  0  0  0  0  0  0  0  0  0  0  0
   13.6361   -1.8548    4.0652 N   0  0  0  0  0  0  0  0  0  0  0  0
   14.1198   -2.9754    3.5790 C   0  0  0  0  0  0  0  0  0  0  0  0
   14.7503   -2.9033    1.9941 S   0  0  0  0  0  0  0  0  0  0  0  0
   13.5167   -0.0091   -0.0660 C   0  0  0  0  0  0  0  0  0  0  0  0
   13.7487    0.7115   -1.2265 C   0  0  0  0  0  0  0  0  0  0  0  0
   15.9233    0.5129   -7.1230 C   0  0  0  0  0  0  0  0  0  0  0  0
   15.3314   -0.7232   -7.7664 C   0  0  1  0  0  0  0  0  0  0  0  0
   16.1753   -1.1853   -8.8310 O   0  0  0  0  0  0  0  0  0  0  0  0
   15.2544   -1.7393   -6.6341 C   0  0  0  0  0  0  0  0  0  0  0  0
   18.4060   -6.7393   -5.3962 C   0  0  0  0  0  0  0  0  0  0  0  0
   18.3692   -4.4097   -4.4542 H   0  0  0  0  0  0  0  0  0  0  0  0
   15.5869   -3.8223   -5.2023 H   0  0  0  0  0  0  0  0  0  0  0  0
   14.6795   -5.4718   -3.3567 H   0  0  0  0  0  0  0  0  0  0  0  0
   14.9355   -5.0659   -1.6678 H   0  0  0  0  0  0  0  0  0  0  0  0
   16.2605   -5.7286   -2.6097 H   0  0  0  0  0  0  0  0  0  0  0  0
   13.7875   -3.1027   -3.7143 H   0  0  0  0  0  0  0  0  0  0  0  0
   14.7490   -1.7203   -3.2274 H   0  0  0  0  0  0  0  0  0  0  0  0
   14.0823   -2.8034   -2.0048 H   0  0  0  0  0  0  0  0  0  0  0  0
   17.0362   -2.0515   -2.1618 H   0  0  0  0  0  0  0  0  0  0  0  0
   17.7530   -3.6568   -2.0643 H   0  0  0  0  0  0  0  0  0  0  0  0
   16.4170   -3.2206   -1.0062 H   0  0  0  0  0  0  0  0  0  0  0  0
   17.8641   -0.1275   -6.3472 H   0  0  0  0  0  0  0  0  0  0  0  0
   15.0293    0.0586   -4.1937 H   0  0  0  0  0  0  0  0  0  0  0  0
   16.2638    2.3451   -2.7350 H   0  0  0  0  0  0  0  0  0  0  0  0
   14.6244    3.3132   -4.2334 H   0  0  0  0  0  0  0  0  0  0  0  0
   14.0063    3.4102   -2.5781 H   0  0  0  0  0  0  0  0  0  0  0  0
   13.3773    2.1969   -3.7064 H   0  0  0  0  0  0  0  0  0  0  0  0
   17.1264    0.6623   -1.1945 H   0  0  0  0  0  0  0  0  0  0  0  0
   16.7177   -0.5895    0.8458 H   0  0  0  0  0  0  0  0  0  0  0  0
   14.1843    1.1356    3.7544 H   0  0  0  0  0  0  0  0  0  0  0  0
   12.6622    0.4863    4.3780 H   0  0  0  0  0  0  0  0  0  0  0  0
   12.7735    1.0053    2.6932 H   0  0  0  0  0  0  0  0  0  0  0  0
   14.1249   -3.8952    4.1458 H   0  0  0  0  0  0  0  0  0  0  0  0
   12.4938   -0.2058    0.2398 H   0  0  0  0  0  0  0  0  0  0  0  0
   12.8905    1.0605   -1.7901 H   0  0  0  0  0  0  0  0  0  0  0  0
   15.1177    1.1322   -6.7124 H   0  0  0  0  0  0  0  0  0  0  0  0
   16.4865    1.1308   -7.8305 H   0  0  0  0  0  0  0  0  0  0  0  0
   14.3459   -0.5219   -8.1863 H   0  0  0  0  0  0  0  0  0  0  0  0
   17.1003   -1.0967   -8.5353 H   0  0  0  0  0  0  0  0  0  0  0  0
   15.4046   -2.7596   -6.9970 H   0  0  0  0  0  0  0  0  0  0  0  0
   14.3060   -1.6655   -6.0913 H   0  0  0  0  0  0  0  0  0  0  0  0
   18.3773   -7.2789   -6.3469 H   0  0  0  0  0  0  0  0  0  0  0  0
   18.4134   -7.4591   -4.5741 H   0  0  0  0  0  0  0  0  0  0  0  0
   19.3221   -6.1421   -5.3689 H   0  0  0  0  0  0  0  0  0  0  0  0
  1  2  2  0  0  0  0
  2  3  1  0  0  0  0
  2 34  1  0  0  0  0
  4  3  1  0  0  0  0
  3 35  1  0  0  0  0
  4  5  1  0  0  0  0
  4 36  1  0  0  0  0
  4  9  1  0  0  0  0
  5  6  1  0  0  0  0
  5  7  1  0  0  0  0
  5  8  1  0  0  0  0
  6 37  1  0  0  0  0
  6 38  1  0  0  0  0
  6 39  1  0  0  0  0
  7 40  1  0  0  0  0
  7 41  1  0  0  0  0
  7 42  1  0  0  0  0
  8 43  1  0  0  0  0
  8 44  1  0  0  0  0
  8 45  1  0  0  0  0
  9 10  2  0  0  0  0
  9 11  1  0  0  0  0
 11 33  1  0  0  0  0
 12 11  1  0  0  0  0
 12 30  1  0  0  0  0
 12 46  1  0  0  0  0
 12 13  1  0  0  0  0
 13 14  2  0  0  0  0
 13 15  1  0  0  0  0
 15 47  1  0  0  0  0
 16 15  1  0  0  0  0
 16 48  1  0  0  0  0
 16 17  1  0  0  0  0
 16 18  1  0  0  0  0
 17 49  1  0  0  0  0
 17 50  1  0  0  0  0
 17 51  1  0  0  0  0
 18 19  1  0  0  0  0
 18 29  2  0  0  0  0
 19 52  1  0  0  0  0
 19 20  2  0  0  0  0
 20 53  1  0  0  0  0
 20 21  1  0  0  0  0
 21 28  2  0  0  0  0
 21 22  1  0  0  0  0
 22 23  2  0  0  0  0
 22 27  1  0  0  0  0
 23 24  1  0  0  0  0
 23 25  1  0  0  0  0
 24 54  1  0  0  0  0
 24 55  1  0  0  0  0
 24 56  1  0  0  0  0
 25 26  2  0  0  0  0
 26 57  1  0  0  0  0
 26 27  1  0  0  0  0
 28 58  1  0  0  0  0
 28 29  1  0  0  0  0
 29 59  1  0  0  0  0
 31 30  1  0  0  0  0
 30 60  1  0  0  0  0
 30 61  1  0  0  0  0
 31 33  1  0  0  0  0
 31 62  1  0  0  0  0
 31 32  1  0  0  0  0
 32 63  1  0  0  0  0
 33 64  1  0  0  0  0
 33 65  1  0  0  0  0
 34 66  1  0  0  0  0
 34 67  1  0  0  0  0
 34 68  1  0  0  0  0
M  ZZC   1 o1
M  ZZC   2 c1
M  ZZC   3 n1
M  ZZC   4 c2
M  ZZC   5 c3
M  ZZC   6 c4
M  ZZC   7 c5
M  ZZC   8 c6
M  ZZC   9 c7
M  ZZC  10 o2
M  ZZC  11 n2
M  ZZC  12 c8
M  ZZC  13 c9
M  ZZC  14 o3
M  ZZC  15 n3
M  ZZC  16 c10
M  ZZC  17 c11
M  ZZC  18 c12
M  ZZC  19 c13
M  ZZC  20 c14
M  ZZC  21 c15
M  ZZC  22 c16
M  ZZC  23 c17
M  ZZC  24 c18
M  ZZC  25 n4
M  ZZC  26 c19
M  ZZC  27 s1
M  ZZC  28 c20
M  ZZC  29 c21
M  ZZC  30 c22
M  ZZC  31 c23
M  ZZC  32 o4
M  ZZC  33 c24
M  ZZC  34 c25
M  ZZC  35 h11
M  ZZC  36 h21
M  ZZC  37 h41
M  ZZC  38 h42
M  ZZC  39 h43
M  ZZC  40 h51
M  ZZC  41 h52
M  ZZC  42 h53
M  ZZC  43 h61
M  ZZC  44 h62
M  ZZC  45 h63
M  ZZC  46 h81
M  ZZC  47 h31
M  ZZC  48 h101
M  ZZC  49 h111
M  ZZC  50 h112
M  ZZC  51 h113
M  ZZC  52 h131
M  ZZC  53 h141
M  ZZC  54 h181
M  ZZC  55 h182
M  ZZC  56 h183
M  ZZC  57 h191
M  ZZC  58 h201
M  ZZC  59 h211
M  ZZC  60 h221
M  ZZC  61 h222
M  ZZC  62 h231
M  ZZC  63 h01
M  ZZC  64 h241
M  ZZC  65 h242
M  ZZC  66 h251
M  ZZC  67 h252
M  ZZC  68 h253
M  ZZM   1 7
M  ZZI   1 81
M  ZZM   2 3
M  ZZI   2 121
M  ZZM   3 10
M  ZZI   3 211
M  ZZM   4 1
M  ZZI   4 113
M  ZZM   5 1
M  ZZI   5 110
M  ZZM   6 1
M  ZZI   6 111
M  ZZM   7 1
M  ZZI   7 111
M  ZZM   8 1
M  ZZI   8 111
M  ZZM   9 3
M  ZZI   9 121
M  ZZM  10 7
M  ZZI  10 81
M  ZZM  11 10
M  ZZI  11 192
M  ZZM  12 1
M  ZZI  12 113
M  ZZM  13 3
M  ZZI  13 121
M  ZZM  14 7
M  ZZI  14 81
M  ZZM  15 10
M  ZZI  15 211
M  ZZM  16 1
M  ZZI  16 113
M  ZZM  17 1
M  ZZI  17 111
M  ZZM  18 37
M  ZZI  18 124
M  ZZM  19 37
M  ZZI  19 125
M  ZZM  20 37
M  ZZI  20 125
M  ZZM  21 37
M  ZZI  21 124
M  ZZM  22 63
M  ZZI  22 104
M  ZZM  23 64
M  ZZI  23 105
M  ZZM  24 1
M  ZZI  24 111
M  ZZM  25 66
M  ZZI  25 222
M  ZZM  26 63
M  ZZI  26 104
M  ZZM  27 44
M  ZZI  27 248
M  ZZM  28 37
M  ZZI  28 125
M  ZZM  29 37
M  ZZI  29 125
M  ZZM  30 1
M  ZZI  30 112
M  ZZM  31 1
M  ZZI  31 113
M  ZZM  32 6
M  ZZI  32 60
M  ZZM  33 1
M  ZZI  33 112
M  ZZM  34 1
M  ZZI  34 111
M  ZZM  35 28
M  ZZI  35 11
M  ZZM  36 5
M  ZZI  36 1
M  ZZM  37 5
M  ZZI  37 1
M  ZZM  38 5
M  ZZI  38 1
M  ZZM  39 5
M  ZZI  39 1
M  ZZM  40 5
M  ZZI  40 1
M  ZZM  41 5
M  ZZI  41 1
M  ZZM  42 5
M  ZZI  42 1
M  ZZM  43 5
M  ZZI  43 1
M  ZZM  44 5
M  ZZI  44 1
M  ZZM  45 5
M  ZZI  45 1
M  ZZM  46 5
M  ZZI  46 1
M  ZZM  47 28
M  ZZI  47 11
M  ZZM  48 5
M  ZZI  48 1
M  ZZM  49 5
M  ZZI  49 1
M  ZZM  50 5
M  ZZI  50 1
M  ZZM  51 5
M  ZZI  51 1
M  ZZM  52 5
M  ZZI  52 1
M  ZZM  53 5
M  ZZI  53 1
M  ZZM  54 5
M  ZZI  54 1
M  ZZM  55 5
M  ZZI  55 1
M  ZZM  56 5
M  ZZI  56 1
M  ZZM  57 5
M  ZZI  57 1
M  ZZM  58 5
M  ZZI  58 1
M  ZZM  59 5
M  ZZI  59 1
M  ZZM  60 5
M  ZZI  60 1
M  ZZM  61 5
M  ZZI  61 1
M  ZZM  62 5
M  ZZI  62 1
M  ZZM  63 21
M  ZZI  63 20
M  ZZM  64 5
M  ZZI  64 1
M  ZZM  65 5
M  ZZI  65 1
M  ZZM  66 5
M  ZZI  66 1
M  ZZM  67 5
M  ZZI  67 1
M  ZZM  68 5
M  ZZI  68 1
M  END
> <IX>
1

> <NAME>
VHL_1ERR_4.pdb

> <Score>
-26.540297

> <Natom>
68

> <Nflex>
8

> <Hbond>
-7.51816

> <Hphob>
-6.968754

> <VwInt>
-28.500596

> <Dsolv>
17.295364

> <SolEl>
7.821269

> <Eintl>
4.527913

> <RecConf>
ND

> <projPath>
VHL_maps/

> <NAME_>
VHL_1ERR_4.pdb

$$$$
