VHL_1ERR_27.pdb
  MOLSOFT 04032206363D

 65 67  0  0  1  0  0  0  0  0999 V2000
   16.0896   -6.4413   -5.7038 O   0  0  0  0  0  0  0  0  0  0  0  0
   17.1951   -6.1028   -5.3127 C   0  0  0  0  0  0  0  0  0  0  0  0
   17.5057   -4.8607   -4.7918 N   0  0  0  0  0  0  0  0  0  0  0  0
   16.5548   -3.7481   -4.6925 C   0  0  1  0  0  0  0  0  0  0  0  0
   15.9231   -3.6003   -3.2688 C   0  0  0  0  0  0  0  0  0  0  0  0
   15.4283   -4.9572   -2.7442 C   0  0  0  0  0  0  0  0  0  0  0  0
   14.7076   -2.6610   -3.3114 C   0  0  0  0  0  0  0  0  0  0  0  0
   16.9243   -3.0406   -2.2463 C   0  0  0  0  0  0  0  0  0  0  0  0
   17.2906   -2.4801   -5.1637 C   0  0  0  0  0  0  0  0  0  0  0  0
   18.4593   -2.2831   -4.8637 O   0  0  0  0  0  0  0  0  0  0  0  0
   16.5708   -1.5157   -5.8721 N   0  0  0  0  0  0  0  0  0  0  0  0
   17.1919   -0.2448   -6.2259 C   0  0  2  0  0  0  0  0  0  0  0  0
   17.5870    0.6390   -5.0485 C   0  0  0  0  0  0  0  0  0  0  0  0
   17.0949    0.5347   -3.9331 O   0  0  0  0  0  0  0  0  0  0  0  0
   18.5229    1.5960   -5.4062 N   0  0  0  0  0  0  0  0  0  0  0  0
   19.0264    2.5760   -4.4660 C   0  0  0  0  0  0  0  0  0  0  0  0
   17.9555    3.5503   -4.0562 C   0  0  0  0  0  0  0  0  0  0  0  0
   17.5481    3.6174   -2.7299 C   0  0  0  0  0  0  0  0  0  0  0  0
   16.4840    4.4171   -2.3631 C   0  0  0  0  0  0  0  0  0  0  0  0
   15.8027    5.1703   -3.3116 C   0  0  0  0  0  0  0  0  0  0  0  0
   14.6112    5.9051   -2.9237 C   0  0  0  0  0  0  0  0  0  0  0  0
   13.4360    5.4331   -2.3581 C   0  0  0  0  0  0  0  0  0  0  0  0
   13.1205    4.0144   -2.0570 C   0  0  0  0  0  0  0  0  0  0  0  0
   12.5055    6.4088   -2.0515 N   0  0  0  0  0  0  0  0  0  0  0  0
   12.9772    7.5859   -2.3968 C   0  0  0  0  0  0  0  0  0  0  0  0
   14.5225    7.6091   -3.1203 S   0  0  0  0  0  0  0  0  0  0  0  0
   16.2443    5.1501   -4.6301 C   0  0  0  0  0  0  0  0  0  0  0  0
   17.3128    4.3501   -4.9974 C   0  0  0  0  0  0  0  0  0  0  0  0
   16.1664    0.4668   -7.1001 C   0  0  0  0  0  0  0  0  0  0  0  0
   15.4245   -0.6781   -7.7588 C   0  0  1  0  0  0  0  0  0  0  0  0
   16.1555   -1.1429   -8.9045 O   0  0  0  0  0  0  0  0  0  0  0  0
   15.3822   -1.7468   -6.6724 C   0  0  0  0  0  0  0  0  0  0  0  0
   18.3602   -7.0522   -5.3520 C   0  0  0  0  0  0  0  0  0  0  0  0
   18.4558   -4.6943   -4.4833 H   0  0  0  0  0  0  0  0  0  0  0  0
   15.7732   -3.9694   -5.4063 H   0  0  0  0  0  0  0  0  0  0  0  0
   14.6972   -5.4001   -3.4227 H   0  0  0  0  0  0  0  0  0  0  0  0
   14.9402   -4.8578   -1.7697 H   0  0  0  0  0  0  0  0  0  0  0  0
   16.2448   -5.6728   -2.6153 H   0  0  0  0  0  0  0  0  0  0  0  0
   13.9592   -3.0085   -4.0304 H   0  0  0  0  0  0  0  0  0  0  0  0
   14.9869   -1.6397   -3.5840 H   0  0  0  0  0  0  0  0  0  0  0  0
   14.2135   -2.6012   -2.3361 H   0  0  0  0  0  0  0  0  0  0  0  0
   17.2211   -2.0137   -2.4788 H   0  0  0  0  0  0  0  0  0  0  0  0
   17.8325   -3.6433   -2.2037 H   0  0  0  0  0  0  0  0  0  0  0  0
   16.4985   -3.0260   -1.2377 H   0  0  0  0  0  0  0  0  0  0  0  0
   18.0940   -0.4716   -6.7908 H   0  0  0  0  0  0  0  0  0  0  0  0
   18.9080    1.5953   -6.3450 H   0  0  0  0  0  0  0  0  0  0  0  0
   19.4226    2.0378   -3.5977 H   0  0  0  0  0  0  0  0  0  0  0  0
   19.8582    3.1073   -4.9400 H   0  0  0  0  0  0  0  0  0  0  0  0
   18.0326    3.0068   -1.9734 H   0  0  0  0  0  0  0  0  0  0  0  0
   16.1692    4.4238   -1.3236 H   0  0  0  0  0  0  0  0  0  0  0  0
   12.0563    3.8685   -1.8685 H   0  0  0  0  0  0  0  0  0  0  0  0
   13.6628    3.6774   -1.1695 H   0  0  0  0  0  0  0  0  0  0  0  0
   13.3890    3.3644   -2.8948 H   0  0  0  0  0  0  0  0  0  0  0  0
   12.4250    8.4970   -2.2294 H   0  0  0  0  0  0  0  0  0  0  0  0
   15.7303    5.7266   -5.3939 H   0  0  0  0  0  0  0  0  0  0  0  0
   17.6166    4.3212   -6.0398 H   0  0  0  0  0  0  0  0  0  0  0  0
   15.4772    1.0598   -6.4875 H   0  0  0  0  0  0  0  0  0  0  0  0
   16.6450    1.1368   -7.8224 H   0  0  0  0  0  0  0  0  0  0  0  0
   14.4245   -0.3892   -8.0892 H   0  0  0  0  0  0  0  0  0  0  0  0
   17.1040   -1.1135   -8.6809 H   0  0  0  0  0  0  0  0  0  0  0  0
   15.3926   -2.7560   -7.0921 H   0  0  0  0  0  0  0  0  0  0  0  0
   14.5114   -1.6163   -6.0231 H   0  0  0  0  0  0  0  0  0  0  0  0
   18.3658   -7.5710   -6.3140 H   0  0  0  0  0  0  0  0  0  0  0  0
   18.2492   -7.7825   -4.5473 H   0  0  0  0  0  0  0  0  0  0  0  0
   19.3134   -6.5275   -5.2396 H   0  0  0  0  0  0  0  0  0  0  0  0
  1  2  2  0  0  0  0
  2  3  1  0  0  0  0
  2 33  1  0  0  0  0
  4  3  1  0  0  0  0
  3 34  1  0  0  0  0
  4  5  1  0  0  0  0
  4 35  1  0  0  0  0
  4  9  1  0  0  0  0
  5  6  1  0  0  0  0
  5  7  1  0  0  0  0
  5  8  1  0  0  0  0
  6 36  1  0  0  0  0
  6 37  1  0  0  0  0
  6 38  1  0  0  0  0
  7 39  1  0  0  0  0
  7 40  1  0  0  0  0
  7 41  1  0  0  0  0
  8 42  1  0  0  0  0
  8 43  1  0  0  0  0
  8 44  1  0  0  0  0
  9 10  2  0  0  0  0
  9 11  1  0  0  0  0
 11 32  1  0  0  0  0
 12 11  1  0  0  0  0
 12 29  1  0  0  0  0
 12 45  1  0  0  0  0
 12 13  1  0  0  0  0
 13 14  2  0  0  0  0
 13 15  1  0  0  0  0
 15 46  1  0  0  0  0
 15 16  1  0  0  0  0
 16 47  1  0  0  0  0
 16 48  1  0  0  0  0
 16 17  1  0  0  0  0
 17 18  1  0  0  0  0
 17 28  2  0  0  0  0
 18 49  1  0  0  0  0
 18 19  2  0  0  0  0
 19 50  1  0  0  0  0
 19 20  1  0  0  0  0
 20 27  2  0  0  0  0
 20 21  1  0  0  0  0
 21 22  2  0  0  0  0
 21 26  1  0  0  0  0
 22 23  1  0  0  0  0
 22 24  1  0  0  0  0
 23 51  1  0  0  0  0
 23 52  1  0  0  0  0
 23 53  1  0  0  0  0
 24 25  2  0  0  0  0
 25 54  1  0  0  0  0
 25 26  1  0  0  0  0
 27 55  1  0  0  0  0
 27 28  1  0  0  0  0
 28 56  1  0  0  0  0
 30 29  1  0  0  0  0
 29 57  1  0  0  0  0
 29 58  1  0  0  0  0
 30 32  1  0  0  0  0
 30 59  1  0  0  0  0
 30 31  1  0  0  0  0
 31 60  1  0  0  0  0
 32 61  1  0  0  0  0
 32 62  1  0  0  0  0
 33 63  1  0  0  0  0
 33 64  1  0  0  0  0
 33 65  1  0  0  0  0
M  ZZC   1 o1
M  ZZC   2 c1
M  ZZC   3 n1
M  ZZC   4 c2
M  ZZC   5 c3
M  ZZC   6 c4
M  ZZC   7 c5
M  ZZC   8 c6
M  ZZC   9 c7
M  ZZC  10 o2
M  ZZC  11 n2
M  ZZC  12 c8
M  ZZC  13 c9
M  ZZC  14 o3
M  ZZC  15 n3
M  ZZC  16 c10
M  ZZC  17 c11
M  ZZC  18 c12
M  ZZC  19 c13
M  ZZC  20 c14
M  ZZC  21 c15
M  ZZC  22 c16
M  ZZC  23 c17
M  ZZC  24 n4
M  ZZC  25 c18
M  ZZC  26 s1
M  ZZC  27 c19
M  ZZC  28 c20
M  ZZC  29 c21
M  ZZC  30 c22
M  ZZC  31 o4
M  ZZC  32 c23
M  ZZC  33 c24
M  ZZC  34 h11
M  ZZC  35 h21
M  ZZC  36 h41
M  ZZC  37 h42
M  ZZC  38 h43
M  ZZC  39 h51
M  ZZC  40 h52
M  ZZC  41 h53
M  ZZC  42 h61
M  ZZC  43 h62
M  ZZC  44 h63
M  ZZC  45 h81
M  ZZC  46 h31
M  ZZC  47 h101
M  ZZC  48 h102
M  ZZC  49 h121
M  ZZC  50 h131
M  ZZC  51 h171
M  ZZC  52 h172
M  ZZC  53 h173
M  ZZC  54 h181
M  ZZC  55 h191
M  ZZC  56 h201
M  ZZC  57 h211
M  ZZC  58 h212
M  ZZC  59 h221
M  ZZC  60 h01
M  ZZC  61 h231
M  ZZC  62 h232
M  ZZC  63 h241
M  ZZC  64 h242
M  ZZC  65 h243
M  ZZM   1 7
M  ZZI   1 81
M  ZZM   2 3
M  ZZI   2 121
M  ZZM   3 10
M  ZZI   3 211
M  ZZM   4 1
M  ZZI   4 113
M  ZZM   5 1
M  ZZI   5 110
M  ZZM   6 1
M  ZZI   6 111
M  ZZM   7 1
M  ZZI   7 111
M  ZZM   8 1
M  ZZI   8 111
M  ZZM   9 3
M  ZZI   9 121
M  ZZM  10 7
M  ZZI  10 81
M  ZZM  11 10
M  ZZI  11 192
M  ZZM  12 1
M  ZZI  12 113
M  ZZM  13 3
M  ZZI  13 121
M  ZZM  14 7
M  ZZI  14 81
M  ZZM  15 10
M  ZZI  15 211
M  ZZM  16 1
M  ZZI  16 112
M  ZZM  17 37
M  ZZI  17 124
M  ZZM  18 37
M  ZZI  18 125
M  ZZM  19 37
M  ZZI  19 125
M  ZZM  20 37
M  ZZI  20 124
M  ZZM  21 63
M  ZZI  21 104
M  ZZM  22 64
M  ZZI  22 105
M  ZZM  23 1
M  ZZI  23 111
M  ZZM  24 66
M  ZZI  24 222
M  ZZM  25 63
M  ZZI  25 104
M  ZZM  26 44
M  ZZI  26 248
M  ZZM  27 37
M  ZZI  27 125
M  ZZM  28 37
M  ZZI  28 125
M  ZZM  29 1
M  ZZI  29 112
M  ZZM  30 1
M  ZZI  30 113
M  ZZM  31 6
M  ZZI  31 60
M  ZZM  32 1
M  ZZI  32 112
M  ZZM  33 1
M  ZZI  33 111
M  ZZM  34 28
M  ZZI  34 11
M  ZZM  35 5
M  ZZI  35 1
M  ZZM  36 5
M  ZZI  36 1
M  ZZM  37 5
M  ZZI  37 1
M  ZZM  38 5
M  ZZI  38 1
M  ZZM  39 5
M  ZZI  39 1
M  ZZM  40 5
M  ZZI  40 1
M  ZZM  41 5
M  ZZI  41 1
M  ZZM  42 5
M  ZZI  42 1
M  ZZM  43 5
M  ZZI  43 1
M  ZZM  44 5
M  ZZI  44 1
M  ZZM  45 5
M  ZZI  45 1
M  ZZM  46 28
M  ZZI  46 11
M  ZZM  47 5
M  ZZI  47 1
M  ZZM  48 5
M  ZZI  48 1
M  ZZM  49 5
M  ZZI  49 1
M  ZZM  50 5
M  ZZI  50 1
M  ZZM  51 5
M  ZZI  51 1
M  ZZM  52 5
M  ZZI  52 1
M  ZZM  53 5
M  ZZI  53 1
M  ZZM  54 5
M  ZZI  54 1
M  ZZM  55 5
M  ZZI  55 1
M  ZZM  56 5
M  ZZI  56 1
M  ZZM  57 5
M  ZZI  57 1
M  ZZM  58 5
M  ZZI  58 1
M  ZZM  59 5
M  ZZI  59 1
M  ZZM  60 21
M  ZZI  60 20
M  ZZM  61 5
M  ZZI  61 1
M  ZZM  62 5
M  ZZI  62 1
M  ZZM  63 5
M  ZZI  63 1
M  ZZM  64 5
M  ZZI  64 1
M  ZZM  65 5
M  ZZI  65 1
M  END
> <IX>
1

> <NAME>
VHL_1ERR_27.pdb

> <Score>
-26.684975

> <Natom>
65

> <Nflex>
8

> <Hbond>
-9.554949

> <Hphob>
-6.222416

> <VwInt>
-26.053408

> <Dsolv>
18.826269

> <SolEl>
7.92541

> <Eintl>
5.935003

> <RecConf>
ND

> <projPath>
VHL_maps/

> <NAME_>
VHL_1ERR_27.pdb

$$$$
