VHL_3KRR_8.pdb
  MOLSOFT 04032206373D

 65 67  0  0  1  0  0  0  0  0999 V2000
    3.5190   -7.3440  -11.1935 C   0  0  0  0  0  0  0  0  0  0  0  0
    2.5008   -6.2919  -10.8530 C   0  0  0  0  0  0  0  0  0  0  0  0
    1.4493   -6.1880  -11.4669 O   0  0  0  0  0  0  0  0  0  0  0  0
    2.8901   -5.4739   -9.8101 N   0  0  0  0  0  0  0  0  0  0  0  0
    2.0339   -4.3984   -9.2872 C   0  0  2  0  0  0  0  0  0  0  0  0
    2.5067   -2.9853   -9.7424 C   0  0  0  0  0  0  0  0  0  0  0  0
    1.5782   -1.8977   -9.1753 C   0  0  0  0  0  0  0  0  0  0  0  0
    3.9524   -2.6631   -9.3178 C   0  0  0  0  0  0  0  0  0  0  0  0
    2.4156   -2.9102  -11.2745 C   0  0  0  0  0  0  0  0  0  0  0  0
    1.9593   -4.5832   -7.7629 C   0  0  0  0  0  0  0  0  0  0  0  0
    2.7645   -4.0556   -7.0083 O   0  0  0  0  0  0  0  0  0  0  0  0
    0.9559   -5.4204   -7.2736 N   0  0  0  0  0  0  0  0  0  0  0  0
    0.8647   -5.7323   -5.8523 C   0  0  1  0  0  0  0  0  0  0  0  0
    0.4900   -4.5193   -4.9966 C   0  0  0  0  0  0  0  0  0  0  0  0
    0.1843   -3.4350   -5.4756 O   0  0  0  0  0  0  0  0  0  0  0  0
    0.5259   -4.7877   -3.6389 N   0  0  0  0  0  0  0  0  0  0  0  0
    0.1296   -3.8103   -2.6457 C   0  0  0  0  0  0  0  0  0  0  0  0
    1.2728   -3.1975   -1.8737 C   0  0  0  0  0  0  0  0  0  0  0  0
    0.9788   -2.3852   -0.7844 C   0  0  0  0  0  0  0  0  0  0  0  0
    1.9815   -1.7884   -0.0423 C   0  0  0  0  0  0  0  0  0  0  0  0
    3.3191   -1.9865   -0.3638 C   0  0  0  0  0  0  0  0  0  0  0  0
    4.3805   -1.3796    0.4319 C   0  0  0  0  0  0  0  0  0  0  0  0
    5.5041   -1.9474    1.0160 C   0  0  0  0  0  0  0  0  0  0  0  0
    5.8640   -3.3802    1.0379 C   0  0  0  0  0  0  0  0  0  0  0  0
    6.3539   -1.0596    1.6420 N   0  0  0  0  0  0  0  0  0  0  0  0
    5.8244    0.1417    1.6238 C   0  0  0  0  0  0  0  0  0  0  0  0
    4.3483    0.3028    0.7920 S   0  0  0  0  0  0  0  0  0  0  0  0
    3.6184   -2.7905   -1.4602 C   0  0  0  0  0  0  0  0  0  0  0  0
    2.6132   -3.3818   -2.2080 C   0  0  0  0  0  0  0  0  0  0  0  0
   -0.2289   -6.7933   -5.7507 C   0  0  0  0  0  0  0  0  0  0  0  0
   -0.2695   -7.4155   -7.1324 C   0  0  2  0  0  0  0  0  0  0  0  0
    0.7619   -8.3951   -7.2621 O   0  0  0  0  0  0  0  0  0  0  0  0
    0.0451   -6.2459   -8.0460 C   0  0  0  0  0  0  0  0  0  0  0  0
    3.8454   -7.8645  -10.2877 H   0  0  0  0  0  0  0  0  0  0  0  0
    4.3772   -6.8732  -11.6798 H   0  0  0  0  0  0  0  0  0  0  0  0
    3.0813   -8.0778  -11.8763 H   0  0  0  0  0  0  0  0  0  0  0  0
    3.8091   -5.6228   -9.4013 H   0  0  0  0  0  0  0  0  0  0  0  0
    1.0252   -4.5406   -9.6877 H   0  0  0  0  0  0  0  0  0  0  0  0
    1.8713   -0.9033   -9.5259 H   0  0  0  0  0  0  0  0  0  0  0  0
    1.5973   -1.8644   -8.0834 H   0  0  0  0  0  0  0  0  0  0  0  0
    0.5386   -2.0584   -9.4783 H   0  0  0  0  0  0  0  0  0  0  0  0
    4.0477   -2.4953   -8.2423 H   0  0  0  0  0  0  0  0  0  0  0  0
    4.3097   -1.7479   -9.8001 H   0  0  0  0  0  0  0  0  0  0  0  0
    4.6461   -3.4644   -9.5829 H   0  0  0  0  0  0  0  0  0  0  0  0
    3.0502   -3.6613  -11.7492 H   0  0  0  0  0  0  0  0  0  0  0  0
    2.7339   -1.9317  -11.6481 H   0  0  0  0  0  0  0  0  0  0  0  0
    1.4005   -3.0825  -11.6393 H   0  0  0  0  0  0  0  0  0  0  0  0
    1.8339   -6.1214   -5.5203 H   0  0  0  0  0  0  0  0  0  0  0  0
    0.8237   -5.6989   -3.3083 H   0  0  0  0  0  0  0  0  0  0  0  0
   -0.4523   -3.0185   -3.1279 H   0  0  0  0  0  0  0  0  0  0  0  0
   -0.5303   -4.3392   -1.9502 H   0  0  0  0  0  0  0  0  0  0  0  0
   -0.0548   -2.2085   -0.5007 H   0  0  0  0  0  0  0  0  0  0  0  0
    1.7017   -1.1731    0.8075 H   0  0  0  0  0  0  0  0  0  0  0  0
    6.5726   -3.5961    1.8416 H   0  0  0  0  0  0  0  0  0  0  0  0
    6.3208   -3.6726    0.0890 H   0  0  0  0  0  0  0  0  0  0  0  0
    4.9824   -4.0029    1.2117 H   0  0  0  0  0  0  0  0  0  0  0  0
    6.2910    0.9892    2.1022 H   0  0  0  0  0  0  0  0  0  0  0  0
    4.6502   -2.9550   -1.7553 H   0  0  0  0  0  0  0  0  0  0  0  0
    2.8915   -3.9893   -3.0623 H   0  0  0  0  0  0  0  0  0  0  0  0
   -0.0070   -7.5159   -4.9610 H   0  0  0  0  0  0  0  0  0  0  0  0
   -1.1980   -6.3341   -5.5230 H   0  0  0  0  0  0  0  0  0  0  0  0
   -1.2268   -7.8898   -7.3708 H   0  0  0  0  0  0  0  0  0  0  0  0
    0.5290   -9.1610   -6.7067 H   0  0  0  0  0  0  0  0  0  0  0  0
   -0.8467   -5.6435   -8.2510 H   0  0  0  0  0  0  0  0  0  0  0  0
    0.4919   -6.5731   -8.9854 H   0  0  0  0  0  0  0  0  0  0  0  0
  1 34  1  0  0  0  0
  1 35  1  0  0  0  0
  1 36  1  0  0  0  0
  1  2  1  0  0  0  0
  2  3  2  0  0  0  0
  2  4  1  0  0  0  0
  4 37  1  0  0  0  0
  5  4  1  0  0  0  0
  5 38  1  0  0  0  0
  5  6  1  0  0  0  0
  5 10  1  0  0  0  0
  6  7  1  0  0  0  0
  6  8  1  0  0  0  0
  6  9  1  0  0  0  0
  7 39  1  0  0  0  0
  7 40  1  0  0  0  0
  7 41  1  0  0  0  0
  8 42  1  0  0  0  0
  8 43  1  0  0  0  0
  8 44  1  0  0  0  0
  9 45  1  0  0  0  0
  9 46  1  0  0  0  0
  9 47  1  0  0  0  0
 10 11  2  0  0  0  0
 10 12  1  0  0  0  0
 12 33  1  0  0  0  0
 13 12  1  0  0  0  0
 13 30  1  0  0  0  0
 13 48  1  0  0  0  0
 13 14  1  0  0  0  0
 14 15  2  0  0  0  0
 14 16  1  0  0  0  0
 16 49  1  0  0  0  0
 16 17  1  0  0  0  0
 17 50  1  0  0  0  0
 17 51  1  0  0  0  0
 17 18  1  0  0  0  0
 18 19  1  0  0  0  0
 18 29  2  0  0  0  0
 19 52  1  0  0  0  0
 19 20  2  0  0  0  0
 20 53  1  0  0  0  0
 20 21  1  0  0  0  0
 21 28  2  0  0  0  0
 21 22  1  0  0  0  0
 22 23  2  0  0  0  0
 22 27  1  0  0  0  0
 23 24  1  0  0  0  0
 23 25  1  0  0  0  0
 24 54  1  0  0  0  0
 24 55  1  0  0  0  0
 24 56  1  0  0  0  0
 25 26  2  0  0  0  0
 26 57  1  0  0  0  0
 26 27  1  0  0  0  0
 28 58  1  0  0  0  0
 28 29  1  0  0  0  0
 29 59  1  0  0  0  0
 31 30  1  0  0  0  0
 30 60  1  0  0  0  0
 30 61  1  0  0  0  0
 31 33  1  0  0  0  0
 31 62  1  0  0  0  0
 31 32  1  0  0  0  0
 32 63  1  0  0  0  0
 33 64  1  0  0  0  0
 33 65  1  0  0  0  0
M  ZZC   1 c1
M  ZZC   2 c2
M  ZZC   3 o1
M  ZZC   4 n1
M  ZZC   5 c3
M  ZZC   6 c4
M  ZZC   7 c5
M  ZZC   8 c6
M  ZZC   9 c7
M  ZZC  10 c8
M  ZZC  11 o2
M  ZZC  12 n2
M  ZZC  13 c9
M  ZZC  14 c10
M  ZZC  15 o3
M  ZZC  16 n3
M  ZZC  17 c11
M  ZZC  18 c12
M  ZZC  19 c13
M  ZZC  20 c14
M  ZZC  21 c15
M  ZZC  22 c16
M  ZZC  23 c17
M  ZZC  24 c18
M  ZZC  25 n4
M  ZZC  26 c19
M  ZZC  27 s1
M  ZZC  28 c20
M  ZZC  29 c21
M  ZZC  30 c22
M  ZZC  31 c23
M  ZZC  32 o4
M  ZZC  33 c24
M  ZZC  34 h11
M  ZZC  35 h12
M  ZZC  36 h13
M  ZZC  37 h01
M  ZZC  38 h31
M  ZZC  39 h51
M  ZZC  40 h52
M  ZZC  41 h53
M  ZZC  42 h61
M  ZZC  43 h62
M  ZZC  44 h63
M  ZZC  45 h71
M  ZZC  46 h72
M  ZZC  47 h73
M  ZZC  48 h91
M  ZZC  49 h02
M  ZZC  50 h111
M  ZZC  51 h112
M  ZZC  52 h131
M  ZZC  53 h141
M  ZZC  54 h181
M  ZZC  55 h182
M  ZZC  56 h183
M  ZZC  57 h191
M  ZZC  58 h201
M  ZZC  59 h211
M  ZZC  60 h221
M  ZZC  61 h222
M  ZZC  62 h231
M  ZZC  63 h41
M  ZZC  64 h241
M  ZZC  65 h242
M  ZZM   1 1
M  ZZI   1 111
M  ZZM   2 3
M  ZZI   2 121
M  ZZM   3 7
M  ZZI   3 81
M  ZZM   4 10
M  ZZI   4 211
M  ZZM   5 1
M  ZZI   5 113
M  ZZM   6 1
M  ZZI   6 110
M  ZZM   7 1
M  ZZI   7 111
M  ZZM   8 1
M  ZZI   8 111
M  ZZM   9 1
M  ZZI   9 111
M  ZZM  10 3
M  ZZI  10 121
M  ZZM  11 7
M  ZZI  11 81
M  ZZM  12 10
M  ZZI  12 192
M  ZZM  13 1
M  ZZI  13 113
M  ZZM  14 3
M  ZZI  14 121
M  ZZM  15 7
M  ZZI  15 81
M  ZZM  16 10
M  ZZI  16 211
M  ZZM  17 1
M  ZZI  17 112
M  ZZM  18 37
M  ZZI  18 124
M  ZZM  19 37
M  ZZI  19 125
M  ZZM  20 37
M  ZZI  20 125
M  ZZM  21 37
M  ZZI  21 124
M  ZZM  22 63
M  ZZI  22 104
M  ZZM  23 64
M  ZZI  23 105
M  ZZM  24 1
M  ZZI  24 111
M  ZZM  25 66
M  ZZI  25 222
M  ZZM  26 63
M  ZZI  26 104
M  ZZM  27 44
M  ZZI  27 248
M  ZZM  28 37
M  ZZI  28 125
M  ZZM  29 37
M  ZZI  29 125
M  ZZM  30 1
M  ZZI  30 112
M  ZZM  31 1
M  ZZI  31 113
M  ZZM  32 6
M  ZZI  32 60
M  ZZM  33 1
M  ZZI  33 112
M  ZZM  34 5
M  ZZI  34 1
M  ZZM  35 5
M  ZZI  35 1
M  ZZM  36 5
M  ZZI  36 1
M  ZZM  37 28
M  ZZI  37 11
M  ZZM  38 5
M  ZZI  38 1
M  ZZM  39 5
M  ZZI  39 1
M  ZZM  40 5
M  ZZI  40 1
M  ZZM  41 5
M  ZZI  41 1
M  ZZM  42 5
M  ZZI  42 1
M  ZZM  43 5
M  ZZI  43 1
M  ZZM  44 5
M  ZZI  44 1
M  ZZM  45 5
M  ZZI  45 1
M  ZZM  46 5
M  ZZI  46 1
M  ZZM  47 5
M  ZZI  47 1
M  ZZM  48 5
M  ZZI  48 1
M  ZZM  49 28
M  ZZI  49 11
M  ZZM  50 5
M  ZZI  50 1
M  ZZM  51 5
M  ZZI  51 1
M  ZZM  52 5
M  ZZI  52 1
M  ZZM  53 5
M  ZZI  53 1
M  ZZM  54 5
M  ZZI  54 1
M  ZZM  55 5
M  ZZI  55 1
M  ZZM  56 5
M  ZZI  56 1
M  ZZM  57 5
M  ZZI  57 1
M  ZZM  58 5
M  ZZI  58 1
M  ZZM  59 5
M  ZZI  59 1
M  ZZM  60 5
M  ZZI  60 1
M  ZZM  61 5
M  ZZI  61 1
M  ZZM  62 5
M  ZZI  62 1
M  ZZM  63 21
M  ZZI  63 20
M  ZZM  64 5
M  ZZI  64 1
M  ZZM  65 5
M  ZZI  65 1
M  END
> <IX>
1

> <NAME>
VHL_3KRR_8.pdb

> <Score>
-14.244767

> <Natom>
65

> <Nflex>
8

> <Hbond>
-5.425977

> <Hphob>
-6.278844

> <VwInt>
-26.964581

> <Dsolv>
15.564893

> <SolEl>
15.991711

> <Eintl>
6.043605

> <RecConf>
ND

> <projPath>
VHL_maps/

> <NAME_>
VHL_3KRR_8.pdb

$$$$
