VHL_5T8E_26.pdb
  MOLSOFT 04032206423D

 65 67  0  0  1  0  0  0  0  0999 V2000
   18.1172   -6.6600   -5.1217 C   0  0  0  0  0  0  0  0  0  0  0  0
   16.9025   -5.7859   -4.9700 C   0  0  0  0  0  0  0  0  0  0  0  0
   15.8179   -6.1437   -5.3956 O   0  0  0  0  0  0  0  0  0  0  0  0
   17.1444   -4.6087   -4.2894 N   0  0  0  0  0  0  0  0  0  0  0  0
   16.1345   -3.5719   -4.0204 C   0  0  1  0  0  0  0  0  0  0  0  0
   15.8888   -3.3852   -2.4938 C   0  0  0  0  0  0  0  0  0  0  0  0
   14.7821   -2.3678   -2.1927 C   0  0  0  0  0  0  0  0  0  0  0  0
   15.4225   -4.7276   -1.9175 C   0  0  0  0  0  0  0  0  0  0  0  0
   17.1511   -2.9246   -1.7509 C   0  0  0  0  0  0  0  0  0  0  0  0
   16.6286   -2.3291   -4.7908 C   0  0  0  0  0  0  0  0  0  0  0  0
   17.8233   -2.0597   -4.8430 O   0  0  0  0  0  0  0  0  0  0  0  0
   15.6766   -1.5568   -5.4641 N   0  0  0  0  0  0  0  0  0  0  0  0
   16.0706   -0.6445   -6.5273 C   0  0  2  0  0  0  0  0  0  0  0  0
   16.4534    0.7471   -6.0166 C   0  0  0  0  0  0  0  0  0  0  0  0
   15.9334    1.2650   -5.0376 O   0  0  0  0  0  0  0  0  0  0  0  0
   17.3829    1.3836   -6.8182 N   0  0  0  0  0  0  0  0  0  0  0  0
   17.8333    2.7392   -6.5484 C   0  0  0  0  0  0  0  0  0  0  0  0
   19.2436    3.0190   -7.0105 C   0  0  0  0  0  0  0  0  0  0  0  0
   19.6590    4.3243   -7.2655 C   0  0  0  0  0  0  0  0  0  0  0  0
   20.9686    4.6026   -7.6327 C   0  0  0  0  0  0  0  0  0  0  0  0
   21.8997    3.5785   -7.7530 C   0  0  0  0  0  0  0  0  0  0  0  0
   23.2846    3.8385   -8.1118 C   0  0  0  0  0  0  0  0  0  0  0  0
   24.3530    4.2567   -7.3314 C   0  0  0  0  0  0  0  0  0  0  0  0
   24.3230    4.5873   -5.8887 C   0  0  0  0  0  0  0  0  0  0  0  0
   25.5623    4.3375   -7.9925 N   0  0  0  0  0  0  0  0  0  0  0  0
   25.3998    4.0062   -9.2537 C   0  0  0  0  0  0  0  0  0  0  0  0
   23.8140    3.5900   -9.7272 S   0  0  0  0  0  0  0  0  0  0  0  0
   21.4862    2.2811   -7.4976 C   0  0  0  0  0  0  0  0  0  0  0  0
   20.1859    2.0054   -7.1290 C   0  0  0  0  0  0  0  0  0  0  0  0
   14.8350   -0.5725   -7.4104 C   0  0  0  0  0  0  0  0  0  0  0  0
   13.6812   -0.6931   -6.4261 C   0  0  1  0  0  0  0  0  0  0  0  0
   12.5408   -1.3112   -7.0165 O   0  0  0  0  0  0  0  0  0  0  0  0
   14.2305   -1.5805   -5.3220 C   0  0  0  0  0  0  0  0  0  0  0  0
   19.0231   -6.0583   -5.2428 H   0  0  0  0  0  0  0  0  0  0  0  0
   18.0026   -7.2917   -6.0076 H   0  0  0  0  0  0  0  0  0  0  0  0
   18.2107   -7.2963   -4.2386 H   0  0  0  0  0  0  0  0  0  0  0  0
   18.1049   -4.4018   -4.0397 H   0  0  0  0  0  0  0  0  0  0  0  0
   15.2037   -3.9165   -4.4710 H   0  0  0  0  0  0  0  0  0  0  0  0
   15.0657   -1.3584   -2.5032 H   0  0  0  0  0  0  0  0  0  0  0  0
   14.5715   -2.3133   -1.1195 H   0  0  0  0  0  0  0  0  0  0  0  0
   13.8434   -2.6417   -2.6835 H   0  0  0  0  0  0  0  0  0  0  0  0
   15.1652   -4.6312   -0.8601 H   0  0  0  0  0  0  0  0  0  0  0  0
   16.1928   -5.4958   -2.0058 H   0  0  0  0  0  0  0  0  0  0  0  0
   14.5337   -5.1009   -2.4362 H   0  0  0  0  0  0  0  0  0  0  0  0
   16.9715   -2.8400   -0.6743 H   0  0  0  0  0  0  0  0  0  0  0  0
   17.4946   -1.9459   -2.1000 H   0  0  0  0  0  0  0  0  0  0  0  0
   17.9737   -3.6258   -1.8791 H   0  0  0  0  0  0  0  0  0  0  0  0
   16.9189   -1.0674   -7.0755 H   0  0  0  0  0  0  0  0  0  0  0  0
   17.7742    0.8859   -7.6131 H   0  0  0  0  0  0  0  0  0  0  0  0
   17.1323    3.4027   -7.0666 H   0  0  0  0  0  0  0  0  0  0  0  0
   17.7574    2.9392   -5.4743 H   0  0  0  0  0  0  0  0  0  0  0  0
   18.9559    5.1469   -7.1717 H   0  0  0  0  0  0  0  0  0  0  0  0
   21.2598    5.6313   -7.8235 H   0  0  0  0  0  0  0  0  0  0  0  0
   25.2894    4.9747   -5.5535 H   0  0  0  0  0  0  0  0  0  0  0  0
   24.0979    3.6983   -5.2950 H   0  0  0  0  0  0  0  0  0  0  0  0
   23.5656    5.3473   -5.6763 H   0  0  0  0  0  0  0  0  0  0  0  0
   26.2180    3.9977   -9.9595 H   0  0  0  0  0  0  0  0  0  0  0  0
   22.1839    1.4577   -7.5863 H   0  0  0  0  0  0  0  0  0  0  0  0
   19.9164    0.9744   -6.9326 H   0  0  0  0  0  0  0  0  0  0  0  0
   14.7708    0.3428   -8.0081 H   0  0  0  0  0  0  0  0  0  0  0  0
   14.8242   -1.4178   -8.1072 H   0  0  0  0  0  0  0  0  0  0  0  0
   13.3866    0.2854   -6.0298 H   0  0  0  0  0  0  0  0  0  0  0  0
   12.1920   -0.7157   -7.7043 H   0  0  0  0  0  0  0  0  0  0  0  0
   13.8457   -2.6010   -5.3546 H   0  0  0  0  0  0  0  0  0  0  0  0
   13.9607   -1.1512   -4.3570 H   0  0  0  0  0  0  0  0  0  0  0  0
  1 34  1  0  0  0  0
  1 35  1  0  0  0  0
  1 36  1  0  0  0  0
  1  2  1  0  0  0  0
  2  3  2  0  0  0  0
  2  4  1  0  0  0  0
  4 37  1  0  0  0  0
  5  4  1  0  0  0  0
  5 38  1  0  0  0  0
  5  6  1  0  0  0  0
  5 10  1  0  0  0  0
  6  7  1  0  0  0  0
  6  8  1  0  0  0  0
  6  9  1  0  0  0  0
  7 39  1  0  0  0  0
  7 40  1  0  0  0  0
  7 41  1  0  0  0  0
  8 42  1  0  0  0  0
  8 43  1  0  0  0  0
  8 44  1  0  0  0  0
  9 45  1  0  0  0  0
  9 46  1  0  0  0  0
  9 47  1  0  0  0  0
 10 11  2  0  0  0  0
 10 12  1  0  0  0  0
 12 33  1  0  0  0  0
 13 12  1  0  0  0  0
 13 30  1  0  0  0  0
 13 48  1  0  0  0  0
 13 14  1  0  0  0  0
 14 15  2  0  0  0  0
 14 16  1  0  0  0  0
 16 49  1  0  0  0  0
 16 17  1  0  0  0  0
 17 50  1  0  0  0  0
 17 51  1  0  0  0  0
 17 18  1  0  0  0  0
 18 19  1  0  0  0  0
 18 29  2  0  0  0  0
 19 52  1  0  0  0  0
 19 20  2  0  0  0  0
 20 53  1  0  0  0  0
 20 21  1  0  0  0  0
 21 28  2  0  0  0  0
 21 22  1  0  0  0  0
 22 23  2  0  0  0  0
 22 27  1  0  0  0  0
 23 24  1  0  0  0  0
 23 25  1  0  0  0  0
 24 54  1  0  0  0  0
 24 55  1  0  0  0  0
 24 56  1  0  0  0  0
 25 26  2  0  0  0  0
 26 57  1  0  0  0  0
 26 27  1  0  0  0  0
 28 58  1  0  0  0  0
 28 29  1  0  0  0  0
 29 59  1  0  0  0  0
 31 30  1  0  0  0  0
 30 60  1  0  0  0  0
 30 61  1  0  0  0  0
 31 33  1  0  0  0  0
 31 62  1  0  0  0  0
 31 32  1  0  0  0  0
 32 63  1  0  0  0  0
 33 64  1  0  0  0  0
 33 65  1  0  0  0  0
M  ZZC   1 c1
M  ZZC   2 c2
M  ZZC   3 o1
M  ZZC   4 n1
M  ZZC   5 c3
M  ZZC   6 c4
M  ZZC   7 c5
M  ZZC   8 c6
M  ZZC   9 c7
M  ZZC  10 c8
M  ZZC  11 o2
M  ZZC  12 n2
M  ZZC  13 c9
M  ZZC  14 c10
M  ZZC  15 o3
M  ZZC  16 n3
M  ZZC  17 c11
M  ZZC  18 c12
M  ZZC  19 c13
M  ZZC  20 c14
M  ZZC  21 c15
M  ZZC  22 c16
M  ZZC  23 c17
M  ZZC  24 c18
M  ZZC  25 n4
M  ZZC  26 c19
M  ZZC  27 s1
M  ZZC  28 c20
M  ZZC  29 c21
M  ZZC  30 c22
M  ZZC  31 c23
M  ZZC  32 o4
M  ZZC  33 c24
M  ZZC  34 h11
M  ZZC  35 h12
M  ZZC  36 h13
M  ZZC  37 h01
M  ZZC  38 h31
M  ZZC  39 h51
M  ZZC  40 h52
M  ZZC  41 h53
M  ZZC  42 h61
M  ZZC  43 h62
M  ZZC  44 h63
M  ZZC  45 h71
M  ZZC  46 h72
M  ZZC  47 h73
M  ZZC  48 h91
M  ZZC  49 h02
M  ZZC  50 h111
M  ZZC  51 h112
M  ZZC  52 h131
M  ZZC  53 h141
M  ZZC  54 h181
M  ZZC  55 h182
M  ZZC  56 h183
M  ZZC  57 h191
M  ZZC  58 h201
M  ZZC  59 h211
M  ZZC  60 h221
M  ZZC  61 h222
M  ZZC  62 h231
M  ZZC  63 h41
M  ZZC  64 h241
M  ZZC  65 h242
M  ZZM   1 1
M  ZZI   1 111
M  ZZM   2 3
M  ZZI   2 121
M  ZZM   3 7
M  ZZI   3 81
M  ZZM   4 10
M  ZZI   4 211
M  ZZM   5 1
M  ZZI   5 113
M  ZZM   6 1
M  ZZI   6 110
M  ZZM   7 1
M  ZZI   7 111
M  ZZM   8 1
M  ZZI   8 111
M  ZZM   9 1
M  ZZI   9 111
M  ZZM  10 3
M  ZZI  10 121
M  ZZM  11 7
M  ZZI  11 81
M  ZZM  12 10
M  ZZI  12 192
M  ZZM  13 1
M  ZZI  13 113
M  ZZM  14 3
M  ZZI  14 121
M  ZZM  15 7
M  ZZI  15 81
M  ZZM  16 10
M  ZZI  16 211
M  ZZM  17 1
M  ZZI  17 112
M  ZZM  18 37
M  ZZI  18 124
M  ZZM  19 37
M  ZZI  19 125
M  ZZM  20 37
M  ZZI  20 125
M  ZZM  21 37
M  ZZI  21 124
M  ZZM  22 63
M  ZZI  22 104
M  ZZM  23 64
M  ZZI  23 105
M  ZZM  24 1
M  ZZI  24 111
M  ZZM  25 66
M  ZZI  25 222
M  ZZM  26 63
M  ZZI  26 104
M  ZZM  27 44
M  ZZI  27 248
M  ZZM  28 37
M  ZZI  28 125
M  ZZM  29 37
M  ZZI  29 125
M  ZZM  30 1
M  ZZI  30 112
M  ZZM  31 1
M  ZZI  31 113
M  ZZM  32 6
M  ZZI  32 60
M  ZZM  33 1
M  ZZI  33 112
M  ZZM  34 5
M  ZZI  34 1
M  ZZM  35 5
M  ZZI  35 1
M  ZZM  36 5
M  ZZI  36 1
M  ZZM  37 28
M  ZZI  37 11
M  ZZM  38 5
M  ZZI  38 1
M  ZZM  39 5
M  ZZI  39 1
M  ZZM  40 5
M  ZZI  40 1
M  ZZM  41 5
M  ZZI  41 1
M  ZZM  42 5
M  ZZI  42 1
M  ZZM  43 5
M  ZZI  43 1
M  ZZM  44 5
M  ZZI  44 1
M  ZZM  45 5
M  ZZI  45 1
M  ZZM  46 5
M  ZZI  46 1
M  ZZM  47 5
M  ZZI  47 1
M  ZZM  48 5
M  ZZI  48 1
M  ZZM  49 28
M  ZZI  49 11
M  ZZM  50 5
M  ZZI  50 1
M  ZZM  51 5
M  ZZI  51 1
M  ZZM  52 5
M  ZZI  52 1
M  ZZM  53 5
M  ZZI  53 1
M  ZZM  54 5
M  ZZI  54 1
M  ZZM  55 5
M  ZZI  55 1
M  ZZM  56 5
M  ZZI  56 1
M  ZZM  57 5
M  ZZI  57 1
M  ZZM  58 5
M  ZZI  58 1
M  ZZM  59 5
M  ZZI  59 1
M  ZZM  60 5
M  ZZI  60 1
M  ZZM  61 5
M  ZZI  61 1
M  ZZM  62 5
M  ZZI  62 1
M  ZZM  63 21
M  ZZI  63 20
M  ZZM  64 5
M  ZZI  64 1
M  ZZM  65 5
M  ZZI  65 1
M  END
> <IX>
1

> <NAME>
VHL_5T8E_26.pdb

> <Score>
-11.499279

> <Natom>
65

> <Nflex>
8

> <Hbond>
-4.960405

> <Hphob>
-6.533948

> <VwInt>
-28.143489

> <Dsolv>
16.818223

> <SolEl>
17.207928

> <Eintl>
8.001469

> <RecConf>
ND

> <projPath>
VHL_maps/

> <NAME_>
VHL_5T8E_26.pdb

$$$$
