VHL_5P9J_19.pdb
  MOLSOFT 04032206413D

 65 67  0  0  1  0  0  0  0  0999 V2000
   15.9639   -6.1442   -5.5245 O   0  0  0  0  0  0  0  0  0  0  0  0
   17.0546   -5.8009   -5.1002 C   0  0  0  0  0  0  0  0  0  0  0  0
   17.3154   -4.6066   -4.4544 N   0  0  0  0  0  0  0  0  0  0  0  0
   16.3249   -3.5498   -4.2084 C   0  0  1  0  0  0  0  0  0  0  0  0
   15.7140   -3.6259   -2.7715 C   0  0  0  0  0  0  0  0  0  0  0  0
   14.5484   -2.6379   -2.6443 C   0  0  0  0  0  0  0  0  0  0  0  0
   16.7219   -3.3095   -1.6541 C   0  0  0  0  0  0  0  0  0  0  0  0
   15.1578   -5.0318   -2.5112 C   0  0  0  0  0  0  0  0  0  0  0  0
   17.0543   -2.2223   -4.5051 C   0  0  0  0  0  0  0  0  0  0  0  0
   18.0461   -1.9078   -3.8635 O   0  0  0  0  0  0  0  0  0  0  0  0
   16.6128   -1.4115   -5.5580 N   0  0  0  0  0  0  0  0  0  0  0  0
   15.5533   -1.6764   -6.5278 C   0  0  1  0  0  0  0  0  0  0  0  0
   14.1758   -1.3030   -5.9830 C   0  0  0  0  0  0  0  0  0  0  0  0
   13.1555   -1.8019   -6.4354 O   0  0  0  0  0  0  0  0  0  0  0  0
   14.2011   -0.2815   -5.0561 N   0  0  0  0  0  0  0  0  0  0  0  0
   13.0208    0.2899   -4.4622 C   0  0  0  0  0  0  0  0  0  0  0  0
   13.2771    1.6850   -3.9536 C   0  0  0  0  0  0  0  0  0  0  0  0
   13.1172    2.0037   -2.6093 C   0  0  0  0  0  0  0  0  0  0  0  0
   13.2670    3.3084   -2.1707 C   0  0  0  0  0  0  0  0  0  0  0  0
   13.5941    4.3374   -3.0521 C   0  0  0  0  0  0  0  0  0  0  0  0
   13.7213    5.7194   -2.5911 C   0  0  0  0  0  0  0  0  0  0  0  0
   13.2155    6.9148   -3.0993 C   0  0  0  0  0  0  0  0  0  0  0  0
   12.3636    7.1126   -4.2970 C   0  0  0  0  0  0  0  0  0  0  0  0
   13.5367    8.0423   -2.3702 N   0  0  0  0  0  0  0  0  0  0  0  0
   14.2800    7.7120   -1.3402 C   0  0  0  0  0  0  0  0  0  0  0  0
   14.6434    6.0547   -1.1744 S   0  0  0  0  0  0  0  0  0  0  0  0
   13.7842    4.0069   -4.3891 C   0  0  0  0  0  0  0  0  0  0  0  0
   13.6202    2.7064   -4.8328 C   0  0  0  0  0  0  0  0  0  0  0  0
   15.8992   -0.8088   -7.7340 C   0  0  0  0  0  0  0  0  0  0  0  0
   16.7216    0.3387   -7.1796 C   0  0  1  0  0  0  0  0  0  0  0  0
   15.8634    1.4389   -6.8849 O   0  0  0  0  0  0  0  0  0  0  0  0
   17.3664   -0.2222   -5.9179 C   0  0  0  0  0  0  0  0  0  0  0  0
   18.2543   -6.7002   -5.2207 C   0  0  0  0  0  0  0  0  0  0  0  0
   18.2544   -4.4552   -4.1084 H   0  0  0  0  0  0  0  0  0  0  0  0
   15.5179   -3.6895   -4.9217 H   0  0  0  0  0  0  0  0  0  0  0  0
   13.7825   -2.8252   -3.4034 H   0  0  0  0  0  0  0  0  0  0  0  0
   14.8865   -1.6035   -2.7468 H   0  0  0  0  0  0  0  0  0  0  0  0
   14.0615   -2.7145   -1.6669 H   0  0  0  0  0  0  0  0  0  0  0  0
   17.6251   -3.9131   -1.7417 H   0  0  0  0  0  0  0  0  0  0  0  0
   16.2947   -3.5102   -0.6662 H   0  0  0  0  0  0  0  0  0  0  0  0
   17.0224   -2.2582   -1.6525 H   0  0  0  0  0  0  0  0  0  0  0  0
   15.9437   -5.7911   -2.5091 H   0  0  0  0  0  0  0  0  0  0  0  0
   14.4222   -5.3121   -3.2670 H   0  0  0  0  0  0  0  0  0  0  0  0
   14.6608   -5.0907   -1.5406 H   0  0  0  0  0  0  0  0  0  0  0  0
   15.5452   -2.7365   -6.7982 H   0  0  0  0  0  0  0  0  0  0  0  0
   15.1012    0.0584   -4.7380 H   0  0  0  0  0  0  0  0  0  0  0  0
   12.2006    0.2839   -5.1892 H   0  0  0  0  0  0  0  0  0  0  0  0
   12.7342   -0.3698   -3.6397 H   0  0  0  0  0  0  0  0  0  0  0  0
   12.8467    1.2378   -1.8886 H   0  0  0  0  0  0  0  0  0  0  0  0
   13.1002    3.5160   -1.1200 H   0  0  0  0  0  0  0  0  0  0  0  0
   12.8642    6.7497   -5.1985 H   0  0  0  0  0  0  0  0  0  0  0  0
   12.1453    8.1711   -4.4523 H   0  0  0  0  0  0  0  0  0  0  0  0
   11.4211    6.5668   -4.2129 H   0  0  0  0  0  0  0  0  0  0  0  0
   14.6454    8.4432   -0.6335 H   0  0  0  0  0  0  0  0  0  0  0  0
   14.0522    4.7685   -5.1141 H   0  0  0  0  0  0  0  0  0  0  0  0
   13.7346    2.4962   -5.8924 H   0  0  0  0  0  0  0  0  0  0  0  0
   16.5232   -1.3811   -8.4211 H   0  0  0  0  0  0  0  0  0  0  0  0
   15.0161   -0.4696   -8.2840 H   0  0  0  0  0  0  0  0  0  0  0  0
   17.4621    0.6932   -7.9011 H   0  0  0  0  0  0  0  0  0  0  0  0
   16.4126    2.1520   -6.5138 H   0  0  0  0  0  0  0  0  0  0  0  0
   17.3644    0.4807   -5.0776 H   0  0  0  0  0  0  0  0  0  0  0  0
   18.3966   -0.5258   -6.1000 H   0  0  0  0  0  0  0  0  0  0  0  0
   18.1809   -7.2809   -6.1448 H   0  0  0  0  0  0  0  0  0  0  0  0
   18.2732   -7.3833   -4.3683 H   0  0  0  0  0  0  0  0  0  0  0  0
   19.1830   -6.1226   -5.2505 H   0  0  0  0  0  0  0  0  0  0  0  0
  1  2  2  0  0  0  0
  2  3  1  0  0  0  0
  2 33  1  0  0  0  0
  4  3  1  0  0  0  0
  3 34  1  0  0  0  0
  4  5  1  0  0  0  0
  4 35  1  0  0  0  0
  4  9  1  0  0  0  0
  5  6  1  0  0  0  0
  5  7  1  0  0  0  0
  5  8  1  0  0  0  0
  6 36  1  0  0  0  0
  6 37  1  0  0  0  0
  6 38  1  0  0  0  0
  7 39  1  0  0  0  0
  7 40  1  0  0  0  0
  7 41  1  0  0  0  0
  8 42  1  0  0  0  0
  8 43  1  0  0  0  0
  8 44  1  0  0  0  0
  9 10  2  0  0  0  0
  9 11  1  0  0  0  0
 11 32  1  0  0  0  0
 12 11  1  0  0  0  0
 12 29  1  0  0  0  0
 12 45  1  0  0  0  0
 12 13  1  0  0  0  0
 13 14  2  0  0  0  0
 13 15  1  0  0  0  0
 15 46  1  0  0  0  0
 15 16  1  0  0  0  0
 16 47  1  0  0  0  0
 16 48  1  0  0  0  0
 16 17  1  0  0  0  0
 17 18  1  0  0  0  0
 17 28  2  0  0  0  0
 18 49  1  0  0  0  0
 18 19  2  0  0  0  0
 19 50  1  0  0  0  0
 19 20  1  0  0  0  0
 20 27  2  0  0  0  0
 20 21  1  0  0  0  0
 21 22  2  0  0  0  0
 21 26  1  0  0  0  0
 22 23  1  0  0  0  0
 22 24  1  0  0  0  0
 23 51  1  0  0  0  0
 23 52  1  0  0  0  0
 23 53  1  0  0  0  0
 24 25  2  0  0  0  0
 25 54  1  0  0  0  0
 25 26  1  0  0  0  0
 27 55  1  0  0  0  0
 27 28  1  0  0  0  0
 28 56  1  0  0  0  0
 30 29  1  0  0  0  0
 29 57  1  0  0  0  0
 29 58  1  0  0  0  0
 30 32  1  0  0  0  0
 30 59  1  0  0  0  0
 30 31  1  0  0  0  0
 31 60  1  0  0  0  0
 32 61  1  0  0  0  0
 32 62  1  0  0  0  0
 33 63  1  0  0  0  0
 33 64  1  0  0  0  0
 33 65  1  0  0  0  0
M  ZZC   1 o1
M  ZZC   2 c1
M  ZZC   3 n1
M  ZZC   4 c2
M  ZZC   5 c3
M  ZZC   6 c4
M  ZZC   7 c5
M  ZZC   8 c6
M  ZZC   9 c7
M  ZZC  10 o2
M  ZZC  11 n2
M  ZZC  12 c8
M  ZZC  13 c9
M  ZZC  14 o3
M  ZZC  15 n3
M  ZZC  16 c10
M  ZZC  17 c11
M  ZZC  18 c12
M  ZZC  19 c13
M  ZZC  20 c14
M  ZZC  21 c15
M  ZZC  22 c16
M  ZZC  23 c17
M  ZZC  24 n4
M  ZZC  25 c18
M  ZZC  26 s1
M  ZZC  27 c19
M  ZZC  28 c20
M  ZZC  29 c21
M  ZZC  30 c22
M  ZZC  31 o4
M  ZZC  32 c23
M  ZZC  33 c24
M  ZZC  34 h11
M  ZZC  35 h21
M  ZZC  36 h41
M  ZZC  37 h42
M  ZZC  38 h43
M  ZZC  39 h51
M  ZZC  40 h52
M  ZZC  41 h53
M  ZZC  42 h61
M  ZZC  43 h62
M  ZZC  44 h63
M  ZZC  45 h81
M  ZZC  46 h31
M  ZZC  47 h101
M  ZZC  48 h102
M  ZZC  49 h121
M  ZZC  50 h131
M  ZZC  51 h171
M  ZZC  52 h172
M  ZZC  53 h173
M  ZZC  54 h181
M  ZZC  55 h191
M  ZZC  56 h201
M  ZZC  57 h211
M  ZZC  58 h212
M  ZZC  59 h221
M  ZZC  60 h01
M  ZZC  61 h231
M  ZZC  62 h232
M  ZZC  63 h241
M  ZZC  64 h242
M  ZZC  65 h243
M  ZZM   1 7
M  ZZI   1 81
M  ZZM   2 3
M  ZZI   2 121
M  ZZM   3 10
M  ZZI   3 211
M  ZZM   4 1
M  ZZI   4 113
M  ZZM   5 1
M  ZZI   5 110
M  ZZM   6 1
M  ZZI   6 111
M  ZZM   7 1
M  ZZI   7 111
M  ZZM   8 1
M  ZZI   8 111
M  ZZM   9 3
M  ZZI   9 121
M  ZZM  10 7
M  ZZI  10 81
M  ZZM  11 10
M  ZZI  11 192
M  ZZM  12 1
M  ZZI  12 113
M  ZZM  13 3
M  ZZI  13 121
M  ZZM  14 7
M  ZZI  14 81
M  ZZM  15 10
M  ZZI  15 211
M  ZZM  16 1
M  ZZI  16 112
M  ZZM  17 37
M  ZZI  17 124
M  ZZM  18 37
M  ZZI  18 125
M  ZZM  19 37
M  ZZI  19 125
M  ZZM  20 37
M  ZZI  20 124
M  ZZM  21 63
M  ZZI  21 104
M  ZZM  22 64
M  ZZI  22 105
M  ZZM  23 1
M  ZZI  23 111
M  ZZM  24 66
M  ZZI  24 222
M  ZZM  25 63
M  ZZI  25 104
M  ZZM  26 44
M  ZZI  26 248
M  ZZM  27 37
M  ZZI  27 125
M  ZZM  28 37
M  ZZI  28 125
M  ZZM  29 1
M  ZZI  29 112
M  ZZM  30 1
M  ZZI  30 113
M  ZZM  31 6
M  ZZI  31 60
M  ZZM  32 1
M  ZZI  32 112
M  ZZM  33 1
M  ZZI  33 111
M  ZZM  34 28
M  ZZI  34 11
M  ZZM  35 5
M  ZZI  35 1
M  ZZM  36 5
M  ZZI  36 1
M  ZZM  37 5
M  ZZI  37 1
M  ZZM  38 5
M  ZZI  38 1
M  ZZM  39 5
M  ZZI  39 1
M  ZZM  40 5
M  ZZI  40 1
M  ZZM  41 5
M  ZZI  41 1
M  ZZM  42 5
M  ZZI  42 1
M  ZZM  43 5
M  ZZI  43 1
M  ZZM  44 5
M  ZZI  44 1
M  ZZM  45 5
M  ZZI  45 1
M  ZZM  46 28
M  ZZI  46 11
M  ZZM  47 5
M  ZZI  47 1
M  ZZM  48 5
M  ZZI  48 1
M  ZZM  49 5
M  ZZI  49 1
M  ZZM  50 5
M  ZZI  50 1
M  ZZM  51 5
M  ZZI  51 1
M  ZZM  52 5
M  ZZI  52 1
M  ZZM  53 5
M  ZZI  53 1
M  ZZM  54 5
M  ZZI  54 1
M  ZZM  55 5
M  ZZI  55 1
M  ZZM  56 5
M  ZZI  56 1
M  ZZM  57 5
M  ZZI  57 1
M  ZZM  58 5
M  ZZI  58 1
M  ZZM  59 5
M  ZZI  59 1
M  ZZM  60 21
M  ZZI  60 20
M  ZZM  61 5
M  ZZI  61 1
M  ZZM  62 5
M  ZZI  62 1
M  ZZM  63 5
M  ZZI  63 1
M  ZZM  64 5
M  ZZI  64 1
M  ZZM  65 5
M  ZZI  65 1
M  END
> <IX>
1

> <NAME>
VHL_5P9J_19.pdb

> <Score>
-10.429779

> <Natom>
65

> <Nflex>
8

> <Hbond>
-3.757032

> <Hphob>
-6.708052

> <VwInt>
-26.556899

> <Dsolv>
18.193062

> <SolEl>
13.163353

> <Eintl>
4.990327

> <RecConf>
ND

> <projPath>
VHL_maps/

> <NAME_>
VHL_5P9J_19.pdb

$$$$
