VHL_5T8E_2.pdb
  MOLSOFT 04032206443D

 77 80  0  0  1  0  0  0  0  0999 V2000
   18.7148   -7.3055   -6.2092 C   0  0  0  0  0  0  0  0  0  0  0  0
   19.2423   -5.9050   -5.9444 C   0  0  0  0  0  0  0  0  0  0  0  0
   18.1481   -4.8974   -5.6298 C   0  0  0  0  0  0  0  0  0  0  0  0
   17.2302   -5.3447   -4.5884 N   0  0  0  0  0  0  0  0  0  0  0  0
   16.2768   -4.5217   -3.9945 C   0  0  0  0  0  0  0  0  0  0  0  0
   15.4132   -4.9266   -3.2298 O   0  0  0  0  0  0  0  0  0  0  0  0
   16.4013   -3.0573   -4.3467 C   0  0  0  0  0  0  0  0  0  0  0  0
   15.2191   -2.1904   -3.8984 C   0  0  2  0  0  0  0  0  0  0  0  0
   15.4235   -0.8762   -4.4780 N   0  0  0  0  0  0  0  0  0  0  0  0
   15.1704   -0.5885   -5.8078 C   0  0  0  0  0  0  0  0  0  0  0  0
   14.5603   -1.3305   -6.5679 O   0  0  0  0  0  0  0  0  0  0  0  0
   15.7650    0.7590   -6.2331 C   0  0  2  0  0  0  0  0  0  0  0  0
   14.9639    1.8417   -5.6834 N   0  0  0  0  0  0  0  0  0  0  0  0
   15.1791    2.3064   -4.3837 C   0  0  0  0  0  0  0  0  0  0  0  0
   16.0951    1.8630   -3.7023 O   0  0  0  0  0  0  0  0  0  0  0  0
   14.2226    3.3645   -3.8269 C   0  0  2  0  0  0  0  0  0  0  0  0
   14.9050    4.7511   -3.7153 C   0  0  0  0  0  0  0  0  0  0  0  0
   13.9495    5.8020   -3.1398 C   0  0  0  0  0  0  0  0  0  0  0  0
   15.4317    5.2571   -5.0591 C   0  0  0  0  0  0  0  0  0  0  0  0
   13.7599    2.8759   -2.4873 C   0  0  0  0  0  0  0  0  0  0  0  0
   12.4213    2.6758   -2.3436 O   0  0  0  0  0  0  0  0  0  0  0  0
   12.1424    2.2899   -1.0313 N   0  0  0  0  0  0  0  0  0  0  0  0
   13.3315    2.2221   -0.4199 C   0  0  0  0  0  0  0  0  0  0  0  0
   13.4286    1.8333    1.0047 C   0  0  0  0  0  0  0  0  0  0  0  0
   14.3790    2.5872   -1.2928 C   0  0  0  0  0  0  0  0  0  0  0  0
   14.0089    2.3222   -6.6644 C   0  0  0  0  0  0  0  0  0  0  0  0
   14.4297    1.7126   -8.0012 C   0  0  1  0  0  0  0  0  0  0  0  0
   14.6660    2.7220   -8.9890 O   0  0  0  0  0  0  0  0  0  0  0  0
   15.7411    0.9916   -7.7312 C   0  0  0  0  0  0  0  0  0  0  0  0
   14.9935   -2.0558   -2.3998 C   0  0  0  0  0  0  0  0  0  0  0  0
   15.9318   -2.4276   -1.4323 C   0  0  0  0  0  0  0  0  0  0  0  0
   15.6454   -2.3253   -0.0814 C   0  0  0  0  0  0  0  0  0  0  0  0
   14.4231   -1.8298    0.3388 C   0  0  0  0  0  0  0  0  0  0  0  0
   14.1144   -1.7516    1.7347 C   0  0  0  0  0  0  0  0  0  0  0  0
   13.8585   -1.6823    2.9059 C   0  0  0  0  0  0  0  0  0  0  0  0
   13.4965   -1.4194   -0.6048 C   0  0  0  0  0  0  0  0  0  0  0  0
   13.7836   -1.5296   -1.9533 C   0  0  0  0  0  0  0  0  0  0  0  0
   17.2492   -6.7588   -4.2741 C   0  0  0  0  0  0  0  0  0  0  0  0
   17.3871   -7.5961   -5.5268 C   0  0  0  0  0  0  0  0  0  0  0  0
   18.5993   -7.4552   -7.2812 H   0  0  0  0  0  0  0  0  0  0  0  0
   19.4705   -8.0203   -5.8705 H   0  0  0  0  0  0  0  0  0  0  0  0
   19.9210   -5.9611   -5.0946 H   0  0  0  0  0  0  0  0  0  0  0  0
   19.8450   -5.5630   -6.7911 H   0  0  0  0  0  0  0  0  0  0  0  0
   18.5935   -3.9395   -5.3508 H   0  0  0  0  0  0  0  0  0  0  0  0
   17.5366   -4.7169   -6.5117 H   0  0  0  0  0  0  0  0  0  0  0  0
   17.3428   -2.6760   -3.9344 H   0  0  0  0  0  0  0  0  0  0  0  0
   16.4838   -2.9842   -5.4356 H   0  0  0  0  0  0  0  0  0  0  0  0
   14.3084   -2.6156   -4.3388 H   0  0  0  0  0  0  0  0  0  0  0  0
   15.8770   -0.1670   -3.9042 H   0  0  0  0  0  0  0  0  0  0  0  0
   16.7935    0.8086   -5.8551 H   0  0  0  0  0  0  0  0  0  0  0  0
   13.3484    3.4483   -4.4787 H   0  0  0  0  0  0  0  0  0  0  0  0
   15.7651    4.6761   -3.0396 H   0  0  0  0  0  0  0  0  0  0  0  0
   14.4302    6.7836   -3.0894 H   0  0  0  0  0  0  0  0  0  0  0  0
   13.6312    5.5516   -2.1240 H   0  0  0  0  0  0  0  0  0  0  0  0
   13.0509    5.9056   -3.7568 H   0  0  0  0  0  0  0  0  0  0  0  0
   15.9420    6.2175   -4.9378 H   0  0  0  0  0  0  0  0  0  0  0  0
   14.6197    5.4091   -5.7764 H   0  0  0  0  0  0  0  0  0  0  0  0
   16.1545    4.5652   -5.5002 H   0  0  0  0  0  0  0  0  0  0  0  0
   12.6043    1.1714    1.2828 H   0  0  0  0  0  0  0  0  0  0  0  0
   13.3955    2.7079    1.6605 H   0  0  0  0  0  0  0  0  0  0  0  0
   14.3629    1.3000    1.1986 H   0  0  0  0  0  0  0  0  0  0  0  0
   15.4362    2.6450   -1.0766 H   0  0  0  0  0  0  0  0  0  0  0  0
   13.0220    1.9551   -6.3666 H   0  0  0  0  0  0  0  0  0  0  0  0
   13.9830    3.4138   -6.6826 H   0  0  0  0  0  0  0  0  0  0  0  0
   13.6703    1.0193   -8.3735 H   0  0  0  0  0  0  0  0  0  0  0  0
   13.8026    3.0519   -9.2974 H   0  0  0  0  0  0  0  0  0  0  0  0
   16.5831    1.6320   -8.0133 H   0  0  0  0  0  0  0  0  0  0  0  0
   15.8369    0.0731   -8.3204 H   0  0  0  0  0  0  0  0  0  0  0  0
   16.9011   -2.8254   -1.7127 H   0  0  0  0  0  0  0  0  0  0  0  0
   16.3862   -2.6461    0.6450 H   0  0  0  0  0  0  0  0  0  0  0  0
   13.6409   -1.6140    3.9459 H   0  0  0  0  0  0  0  0  0  0  0  0
   12.5344   -1.0209   -0.2966 H   0  0  0  0  0  0  0  0  0  0  0  0
   13.0398   -1.2036   -2.6719 H   0  0  0  0  0  0  0  0  0  0  0  0
   18.0865   -6.9418   -3.6041 H   0  0  0  0  0  0  0  0  0  0  0  0
   16.3524   -7.0188   -3.7235 H   0  0  0  0  0  0  0  0  0  0  0  0
   16.5644   -7.3676   -6.2130 H   0  0  0  0  0  0  0  0  0  0  0  0
   17.3135   -8.6605   -5.2862 H   0  0  0  0  0  0  0  0  0  0  0  0
  1 40  1  0  0  0  0
  1 41  1  0  0  0  0
  1  2  1  0  0  0  0
  1 39  1  0  0  0  0
  2 42  1  0  0  0  0
  2 43  1  0  0  0  0
  2  3  1  0  0  0  0
  3 44  1  0  0  0  0
  3 45  1  0  0  0  0
  3  4  1  0  0  0  0
  4 38  1  0  0  0  0
  4  5  1  0  0  0  0
  5  6  2  0  0  0  0
  5  7  1  0  0  0  0
  7 46  1  0  0  0  0
  7 47  1  0  0  0  0
  8  7  1  0  0  0  0
  8 48  1  0  0  0  0
  8 30  1  0  0  0  0
  8  9  1  0  0  0  0
  9 49  1  0  0  0  0
  9 10  1  0  0  0  0
 10 11  2  0  0  0  0
 12 10  1  0  0  0  0
 12 50  1  0  0  0  0
 12 29  1  0  0  0  0
 12 13  1  0  0  0  0
 13 26  1  0  0  0  0
 13 14  1  0  0  0  0
 14 15  2  0  0  0  0
 16 14  1  0  0  0  0
 16 51  1  0  0  0  0
 16 17  1  0  0  0  0
 16 20  1  0  0  0  0
 17 52  1  0  0  0  0
 17 19  1  0  0  0  0
 17 18  1  0  0  0  0
 18 53  1  0  0  0  0
 18 54  1  0  0  0  0
 18 55  1  0  0  0  0
 19 56  1  0  0  0  0
 19 57  1  0  0  0  0
 19 58  1  0  0  0  0
 20 25  2  0  0  0  0
 20 21  1  0  0  0  0
 21 22  1  0  0  0  0
 22 23  2  0  0  0  0
 23 25  1  0  0  0  0
 23 24  1  0  0  0  0
 24 59  1  0  0  0  0
 24 60  1  0  0  0  0
 24 61  1  0  0  0  0
 25 62  1  0  0  0  0
 27 26  1  0  0  0  0
 26 63  1  0  0  0  0
 26 64  1  0  0  0  0
 27 29  1  0  0  0  0
 27 65  1  0  0  0  0
 27 28  1  0  0  0  0
 28 66  1  0  0  0  0
 29 67  1  0  0  0  0
 29 68  1  0  0  0  0
 30 31  1  0  0  0  0
 30 37  2  0  0  0  0
 31 69  1  0  0  0  0
 31 32  2  0  0  0  0
 32 70  1  0  0  0  0
 32 33  1  0  0  0  0
 33 34  1  0  0  0  0
 33 36  2  0  0  0  0
 34 35  3  0  0  0  0
 35 71  1  0  0  0  0
 36 72  1  0  0  0  0
 36 37  1  0  0  0  0
 37 73  1  0  0  0  0
 38 74  1  0  0  0  0
 38 75  1  0  0  0  0
 38 39  1  0  0  0  0
 39 76  1  0  0  0  0
 39 77  1  0  0  0  0
M  ZZC   1 c1
M  ZZC   2 c2
M  ZZC   3 c3
M  ZZC   4 n1
M  ZZC   5 c4
M  ZZC   6 o1
M  ZZC   7 c5
M  ZZC   8 c6
M  ZZC   9 n2
M  ZZC  10 c7
M  ZZC  11 o2
M  ZZC  12 c8
M  ZZC  13 n3
M  ZZC  14 c9
M  ZZC  15 o3
M  ZZC  16 c10
M  ZZC  17 c11
M  ZZC  18 c12
M  ZZC  19 c13
M  ZZC  20 c14
M  ZZC  21 o4
M  ZZC  22 n4
M  ZZC  23 c15
M  ZZC  24 c16
M  ZZC  25 c17
M  ZZC  26 c18
M  ZZC  27 c19
M  ZZC  28 o5
M  ZZC  29 c20
M  ZZC  30 c21
M  ZZC  31 c22
M  ZZC  32 c23
M  ZZC  33 c24
M  ZZC  34 c25
M  ZZC  35 c26
M  ZZC  36 c27
M  ZZC  37 c28
M  ZZC  38 c29
M  ZZC  39 c30
M  ZZC  40 h11
M  ZZC  41 h12
M  ZZC  42 h21
M  ZZC  43 h22
M  ZZC  44 h31
M  ZZC  45 h32
M  ZZC  46 h51
M  ZZC  47 h52
M  ZZC  48 h61
M  ZZC  49 h01
M  ZZC  50 h81
M  ZZC  51 h101
M  ZZC  52 h111
M  ZZC  53 h121
M  ZZC  54 h122
M  ZZC  55 h123
M  ZZC  56 h131
M  ZZC  57 h132
M  ZZC  58 h133
M  ZZC  59 h161
M  ZZC  60 h162
M  ZZC  61 h163
M  ZZC  62 h171
M  ZZC  63 h181
M  ZZC  64 h182
M  ZZC  65 h191
M  ZZC  66 h02
M  ZZC  67 h201
M  ZZC  68 h202
M  ZZC  69 h221
M  ZZC  70 h231
M  ZZC  71 h261
M  ZZC  72 h271
M  ZZC  73 h281
M  ZZC  74 h291
M  ZZC  75 h292
M  ZZC  76 h301
M  ZZC  77 h302
M  ZZM   1 1
M  ZZI   1 112
M  ZZM   2 1
M  ZZI   2 112
M  ZZM   3 1
M  ZZI   3 112
M  ZZM   4 10
M  ZZI   4 192
M  ZZM   5 3
M  ZZI   5 121
M  ZZM   6 7
M  ZZI   6 81
M  ZZM   7 1
M  ZZI   7 112
M  ZZM   8 1
M  ZZI   8 113
M  ZZM   9 10
M  ZZI   9 211
M  ZZM  10 3
M  ZZI  10 121
M  ZZM  11 7
M  ZZI  11 81
M  ZZM  12 1
M  ZZI  12 113
M  ZZM  13 10
M  ZZI  13 192
M  ZZM  14 3
M  ZZI  14 121
M  ZZM  15 7
M  ZZI  15 81
M  ZZM  16 1
M  ZZI  16 113
M  ZZM  17 1
M  ZZI  17 113
M  ZZM  18 1
M  ZZI  18 111
M  ZZM  19 1
M  ZZI  19 111
M  ZZM  20 63
M  ZZI  20 104
M  ZZM  21 59
M  ZZI  21 56
M  ZZM  22 65
M  ZZI  22 207
M  ZZM  23 64
M  ZZI  23 105
M  ZZM  24 1
M  ZZI  24 111
M  ZZM  25 64
M  ZZI  25 105
M  ZZM  26 1
M  ZZI  26 112
M  ZZM  27 1
M  ZZI  27 113
M  ZZM  28 6
M  ZZI  28 60
M  ZZM  29 1
M  ZZI  29 112
M  ZZM  30 37
M  ZZI  30 124
M  ZZM  31 37
M  ZZI  31 125
M  ZZM  32 37
M  ZZI  32 125
M  ZZM  33 37
M  ZZI  33 124
M  ZZM  34 4
M  ZZI  34 130
M  ZZM  35 4
M  ZZI  35 130
M  ZZM  36 37
M  ZZI  36 125
M  ZZM  37 37
M  ZZI  37 125
M  ZZM  38 1
M  ZZI  38 112
M  ZZM  39 1
M  ZZI  39 112
M  ZZM  40 5
M  ZZI  40 1
M  ZZM  41 5
M  ZZI  41 1
M  ZZM  42 5
M  ZZI  42 1
M  ZZM  43 5
M  ZZI  43 1
M  ZZM  44 5
M  ZZI  44 1
M  ZZM  45 5
M  ZZI  45 1
M  ZZM  46 5
M  ZZI  46 1
M  ZZM  47 5
M  ZZI  47 1
M  ZZM  48 5
M  ZZI  48 1
M  ZZM  49 28
M  ZZI  49 11
M  ZZM  50 5
M  ZZI  50 1
M  ZZM  51 5
M  ZZI  51 1
M  ZZM  52 5
M  ZZI  52 1
M  ZZM  53 5
M  ZZI  53 1
M  ZZM  54 5
M  ZZI  54 1
M  ZZM  55 5
M  ZZI  55 1
M  ZZM  56 5
M  ZZI  56 1
M  ZZM  57 5
M  ZZI  57 1
M  ZZM  58 5
M  ZZI  58 1
M  ZZM  59 5
M  ZZI  59 1
M  ZZM  60 5
M  ZZI  60 1
M  ZZM  61 5
M  ZZI  61 1
M  ZZM  62 5
M  ZZI  62 1
M  ZZM  63 5
M  ZZI  63 1
M  ZZM  64 5
M  ZZI  64 1
M  ZZM  65 5
M  ZZI  65 1
M  ZZM  66 21
M  ZZI  66 20
M  ZZM  67 5
M  ZZI  67 1
M  ZZM  68 5
M  ZZI  68 1
M  ZZM  69 5
M  ZZI  69 1
M  ZZM  70 5
M  ZZI  70 1
M  ZZM  71 5
M  ZZI  71 1
M  ZZM  72 5
M  ZZI  72 1
M  ZZM  73 5
M  ZZI  73 1
M  ZZM  74 5
M  ZZI  74 1
M  ZZM  75 5
M  ZZI  75 1
M  ZZM  76 5
M  ZZI  76 1
M  ZZM  77 5
M  ZZI  77 1
M  END
> <IX>
1

> <NAME>
VHL_5T8E_2.pdb

> <Score>
-6.021731

> <Natom>
77

> <Nflex>
11

> <Hbond>
-4.635592

> <Hphob>
-7.668654

> <VwInt>
-26.8578

> <Dsolv>
19.670912

> <SolEl>
15.121414

> <Eintl>
10.614662

> <RecConf>
ND

> <projPath>
VHL_maps/

> <NAME_>
VHL_5T8E_2.pdb

$$$$
