VHL_3K6P_8.pdb
  MOLSOFT 04032206363D

 61 63  0  0  1  0  0  0  0  0999 V2000
   17.3956   -4.5734   -4.7930 N   0  3  0  0  0  0  0  0  0  0  0  0
   16.4541   -3.3983   -4.6667 C   0  0  1  0  0  0  0  0  0  0  0  0
   15.8600   -3.3131   -3.2240 C   0  0  0  0  0  0  0  0  0  0  0  0
   15.3523   -4.6874   -2.7533 C   0  0  0  0  0  0  0  0  0  0  0  0
   14.6609   -2.3519   -3.2146 C   0  0  0  0  0  0  0  0  0  0  0  0
   16.8885   -2.8164   -2.1941 C   0  0  0  0  0  0  0  0  0  0  0  0
   17.1560   -2.1122   -5.1335 C   0  0  0  0  0  0  0  0  0  0  0  0
   18.3153   -1.8941   -4.8176 O   0  0  0  0  0  0  0  0  0  0  0  0
   16.4458   -1.2021   -5.9147 N   0  0  0  0  0  0  0  0  0  0  0  0
   17.0657    0.0574   -6.3097 C   0  0  2  0  0  0  0  0  0  0  0  0
   17.2832    1.0431   -5.1706 C   0  0  0  0  0  0  0  0  0  0  0  0
   16.6270    1.0378   -4.1378 O   0  0  0  0  0  0  0  0  0  0  0  0
   18.2322    1.9940   -5.4927 N   0  0  0  0  0  0  0  0  0  0  0  0
   18.3966    3.2029   -4.7213 C   0  0  0  0  0  0  0  0  0  0  0  0
   17.4390    4.2547   -5.2166 C   0  0  0  0  0  0  0  0  0  0  0  0
   17.6682    4.9130   -6.4217 C   0  0  0  0  0  0  0  0  0  0  0  0
   16.7648    5.8465   -6.8998 C   0  0  0  0  0  0  0  0  0  0  0  0
   15.6125    6.1486   -6.1823 C   0  0  0  0  0  0  0  0  0  0  0  0
   14.6930    7.1683   -6.6613 C   0  0  0  0  0  0  0  0  0  0  0  0
   13.9528    7.2559   -7.8335 C   0  0  0  0  0  0  0  0  0  0  0  0
   13.8763    6.2501   -8.9176 C   0  0  0  0  0  0  0  0  0  0  0  0
   13.2196    8.4173   -7.9711 N   0  0  0  0  0  0  0  0  0  0  0  0
   13.4072    9.1813   -6.9184 C   0  0  0  0  0  0  0  0  0  0  0  0
   14.4288    8.5695   -5.7026 S   0  0  0  0  0  0  0  0  0  0  0  0
   15.3713    5.4750   -4.9894 C   0  0  0  0  0  0  0  0  0  0  0  0
   16.2723    4.5384   -4.5144 C   0  0  0  0  0  0  0  0  0  0  0  0
   16.1099    0.6780   -7.3221 C   0  0  0  0  0  0  0  0  0  0  0  0
   15.3838   -0.5172   -7.8967 C   0  0  1  0  0  0  0  0  0  0  0  0
   16.1661   -1.1121   -8.9434 O   0  0  0  0  0  0  0  0  0  0  0  0
   15.2614   -1.4642   -6.7110 C   0  0  0  0  0  0  0  0  0  0  0  0
   17.8694   -4.5740   -5.7065 H   0  0  0  0  0  0  0  0  0  0  0  0
   16.9186   -5.4797   -4.6989 H   0  0  0  0  0  0  0  0  0  0  0  0
   18.1444   -4.5477   -4.0904 H   0  0  0  0  0  0  0  0  0  0  0  0
   15.6610   -3.6312   -5.3662 H   0  0  0  0  0  0  0  0  0  0  0  0
   14.8290   -4.6149   -1.7948 H   0  0  0  0  0  0  0  0  0  0  0  0
   16.1665   -5.4036   -2.6095 H   0  0  0  0  0  0  0  0  0  0  0  0
   14.6519   -5.1215   -3.4704 H   0  0  0  0  0  0  0  0  0  0  0  0
   14.9613   -1.3321   -3.4771 H   0  0  0  0  0  0  0  0  0  0  0  0
   14.1946   -2.3074   -2.2251 H   0  0  0  0  0  0  0  0  0  0  0  0
   13.8911   -2.6497   -3.9318 H   0  0  0  0  0  0  0  0  0  0  0  0
   16.4712   -2.8239   -1.1819 H   0  0  0  0  0  0  0  0  0  0  0  0
   17.2093   -1.7902   -2.3965 H   0  0  0  0  0  0  0  0  0  0  0  0
   17.7828   -3.4433   -2.1760 H   0  0  0  0  0  0  0  0  0  0  0  0
   18.0318   -0.1705   -6.7622 H   0  0  0  0  0  0  0  0  0  0  0  0
   18.7656    1.9051   -6.3510 H   0  0  0  0  0  0  0  0  0  0  0  0
   18.2345    2.9871   -3.6596 H   0  0  0  0  0  0  0  0  0  0  0  0
   19.4319    3.5406   -4.8369 H   0  0  0  0  0  0  0  0  0  0  0  0
   18.5613    4.6991   -7.0016 H   0  0  0  0  0  0  0  0  0  0  0  0
   16.9798    6.3565   -7.8348 H   0  0  0  0  0  0  0  0  0  0  0  0
   14.8496    6.1114   -9.3964 H   0  0  0  0  0  0  0  0  0  0  0  0
   13.1682    6.5646   -9.6900 H   0  0  0  0  0  0  0  0  0  0  0  0
   13.5542    5.2797   -8.5295 H   0  0  0  0  0  0  0  0  0  0  0  0
   12.9472   10.1499   -6.8088 H   0  0  0  0  0  0  0  0  0  0  0  0
   14.4692    5.6723   -4.4171 H   0  0  0  0  0  0  0  0  0  0  0  0
   16.0515    4.0186   -3.5862 H   0  0  0  0  0  0  0  0  0  0  0  0
   15.3953    1.3478   -6.8293 H   0  0  0  0  0  0  0  0  0  0  0  0
   16.6459    1.2550   -8.0817 H   0  0  0  0  0  0  0  0  0  0  0  0
   14.4114   -0.2422   -8.3072 H   0  0  0  0  0  0  0  0  0  0  0  0
   17.1022   -1.0757   -8.6713 H   0  0  0  0  0  0  0  0  0  0  0  0
   15.2246   -2.5085   -7.0293 H   0  0  0  0  0  0  0  0  0  0  0  0
   14.3884   -1.2252   -6.0948 H   0  0  0  0  0  0  0  0  0  0  0  0
  1 31  1  0  0  0  0
  1 32  1  0  0  0  0
  1 33  1  0  0  0  0
  2  1  1  0  0  0  0
  2 34  1  0  0  0  0
  2  3  1  0  0  0  0
  2  7  1  0  0  0  0
  3  4  1  0  0  0  0
  3  5  1  0  0  0  0
  3  6  1  0  0  0  0
  4 35  1  0  0  0  0
  4 36  1  0  0  0  0
  4 37  1  0  0  0  0
  5 38  1  0  0  0  0
  5 39  1  0  0  0  0
  5 40  1  0  0  0  0
  6 41  1  0  0  0  0
  6 42  1  0  0  0  0
  6 43  1  0  0  0  0
  7  8  2  0  0  0  0
  7  9  1  0  0  0  0
  9 30  1  0  0  0  0
 10  9  1  0  0  0  0
 10 27  1  0  0  0  0
 10 44  1  0  0  0  0
 10 11  1  0  0  0  0
 11 12  2  0  0  0  0
 11 13  1  0  0  0  0
 13 45  1  0  0  0  0
 13 14  1  0  0  0  0
 14 46  1  0  0  0  0
 14 47  1  0  0  0  0
 14 15  1  0  0  0  0
 15 16  1  0  0  0  0
 15 26  2  0  0  0  0
 16 48  1  0  0  0  0
 16 17  2  0  0  0  0
 17 49  1  0  0  0  0
 17 18  1  0  0  0  0
 18 25  2  0  0  0  0
 18 19  1  0  0  0  0
 19 20  2  0  0  0  0
 19 24  1  0  0  0  0
 20 21  1  0  0  0  0
 20 22  1  0  0  0  0
 21 50  1  0  0  0  0
 21 51  1  0  0  0  0
 21 52  1  0  0  0  0
 22 23  2  0  0  0  0
 23 53  1  0  0  0  0
 23 24  1  0  0  0  0
 25 54  1  0  0  0  0
 25 26  1  0  0  0  0
 26 55  1  0  0  0  0
 28 27  1  0  0  0  0
 27 56  1  0  0  0  0
 27 57  1  0  0  0  0
 28 30  1  0  0  0  0
 28 58  1  0  0  0  0
 28 29  1  0  0  0  0
 29 59  1  0  0  0  0
 30 60  1  0  0  0  0
 30 61  1  0  0  0  0
M  ZZC   1 n1
M  ZZC   2 c1
M  ZZC   3 c2
M  ZZC   4 c3
M  ZZC   5 c4
M  ZZC   6 c5
M  ZZC   7 c6
M  ZZC   8 o1
M  ZZC   9 n2
M  ZZC  10 c7
M  ZZC  11 c8
M  ZZC  12 o2
M  ZZC  13 n3
M  ZZC  14 c9
M  ZZC  15 c10
M  ZZC  16 c11
M  ZZC  17 c12
M  ZZC  18 c13
M  ZZC  19 c14
M  ZZC  20 c15
M  ZZC  21 c16
M  ZZC  22 n4
M  ZZC  23 c17
M  ZZC  24 s1
M  ZZC  25 c18
M  ZZC  26 c19
M  ZZC  27 c20
M  ZZC  28 c21
M  ZZC  29 o3
M  ZZC  30 c22
M  ZZC  31 h11
M  ZZC  32 h12
M  ZZC  33 h13
M  ZZC  34 h01
M  ZZC  35 h31
M  ZZC  36 h32
M  ZZC  37 h33
M  ZZC  38 h41
M  ZZC  39 h42
M  ZZC  40 h43
M  ZZC  41 h51
M  ZZC  42 h52
M  ZZC  43 h53
M  ZZC  44 h71
M  ZZC  45 h02
M  ZZC  46 h91
M  ZZC  47 h92
M  ZZC  48 h111
M  ZZC  49 h121
M  ZZC  50 h161
M  ZZC  51 h162
M  ZZC  52 h163
M  ZZC  53 h171
M  ZZC  54 h181
M  ZZC  55 h191
M  ZZC  56 h201
M  ZZC  57 h202
M  ZZC  58 h211
M  ZZC  59 h03
M  ZZC  60 h221
M  ZZC  61 h222
M  ZZM   1 34
M  ZZI   1 231
M  ZZM   2 1
M  ZZI   2 113
M  ZZM   3 1
M  ZZI   3 110
M  ZZM   4 1
M  ZZI   4 111
M  ZZM   5 1
M  ZZI   5 111
M  ZZM   6 1
M  ZZI   6 111
M  ZZM   7 3
M  ZZI   7 121
M  ZZM   8 7
M  ZZI   8 81
M  ZZM   9 10
M  ZZI   9 192
M  ZZM  10 1
M  ZZI  10 113
M  ZZM  11 3
M  ZZI  11 121
M  ZZM  12 7
M  ZZI  12 81
M  ZZM  13 10
M  ZZI  13 211
M  ZZM  14 1
M  ZZI  14 112
M  ZZM  15 37
M  ZZI  15 124
M  ZZM  16 37
M  ZZI  16 125
M  ZZM  17 37
M  ZZI  17 125
M  ZZM  18 37
M  ZZI  18 124
M  ZZM  19 63
M  ZZI  19 104
M  ZZM  20 64
M  ZZI  20 105
M  ZZM  21 1
M  ZZI  21 111
M  ZZM  22 66
M  ZZI  22 222
M  ZZM  23 63
M  ZZI  23 104
M  ZZM  24 44
M  ZZI  24 248
M  ZZM  25 37
M  ZZI  25 125
M  ZZM  26 37
M  ZZI  26 125
M  ZZM  27 1
M  ZZI  27 112
M  ZZM  28 1
M  ZZI  28 113
M  ZZM  29 6
M  ZZI  29 60
M  ZZM  30 1
M  ZZI  30 112
M  ZZM  31 36
M  ZZI  31 17
M  ZZM  32 36
M  ZZI  32 17
M  ZZM  33 36
M  ZZI  33 17
M  ZZM  34 5
M  ZZI  34 1
M  ZZM  35 5
M  ZZI  35 1
M  ZZM  36 5
M  ZZI  36 1
M  ZZM  37 5
M  ZZI  37 1
M  ZZM  38 5
M  ZZI  38 1
M  ZZM  39 5
M  ZZI  39 1
M  ZZM  40 5
M  ZZI  40 1
M  ZZM  41 5
M  ZZI  41 1
M  ZZM  42 5
M  ZZI  42 1
M  ZZM  43 5
M  ZZI  43 1
M  ZZM  44 5
M  ZZI  44 1
M  ZZM  45 28
M  ZZI  45 11
M  ZZM  46 5
M  ZZI  46 1
M  ZZM  47 5
M  ZZI  47 1
M  ZZM  48 5
M  ZZI  48 1
M  ZZM  49 5
M  ZZI  49 1
M  ZZM  50 5
M  ZZI  50 1
M  ZZM  51 5
M  ZZI  51 1
M  ZZM  52 5
M  ZZI  52 1
M  ZZM  53 5
M  ZZI  53 1
M  ZZM  54 5
M  ZZI  54 1
M  ZZM  55 5
M  ZZI  55 1
M  ZZM  56 5
M  ZZI  56 1
M  ZZM  57 5
M  ZZI  57 1
M  ZZM  58 5
M  ZZI  58 1
M  ZZM  59 21
M  ZZI  59 20
M  ZZM  60 5
M  ZZI  60 1
M  ZZM  61 5
M  ZZI  61 1
M  CHG  1   1   1
M  END
> <IX>
1

> <NAME>
VHL_3K6P_8.pdb

> <Score>
-17.017938

> <Natom>
61

> <Nflex>
7

> <Hbond>
-7.377747

> <Hphob>
-5.43029

> <VwInt>
-25.939071

> <Dsolv>
20.156535

> <SolEl>
13.194238

> <Eintl>
5.332546

> <RecConf>
ND

> <projPath>
VHL_maps/

> <NAME_>
VHL_3K6P_8.pdb

$$$$
