VHL_4CI3_22.pdb
  MOLSOFT 04032206383D

 65 67  0  0  1  0  0  0  0  0999 V2000
   16.7665   -5.9902   -5.8660 O   0  0  0  0  0  0  0  0  0  0  0  0
   17.7691   -5.3582   -5.5705 C   0  0  0  0  0  0  0  0  0  0  0  0
   17.7805   -4.1157   -4.9564 N   0  0  0  0  0  0  0  0  0  0  0  0
   16.5740   -3.3370   -4.6687 C   0  0  1  0  0  0  0  0  0  0  0  0
   15.9352   -3.6187   -3.2679 C   0  0  0  0  0  0  0  0  0  0  0  0
   16.8239   -3.1706   -2.0958 C   0  0  0  0  0  0  0  0  0  0  0  0
   15.6499   -5.1138   -3.0750 C   0  0  0  0  0  0  0  0  0  0  0  0
   14.5928   -2.8779   -3.1675 C   0  0  0  0  0  0  0  0  0  0  0  0
   16.9430   -1.8487   -4.8337 C   0  0  0  0  0  0  0  0  0  0  0  0
   17.8020   -1.3247   -4.1375 O   0  0  0  0  0  0  0  0  0  0  0  0
   16.2675   -1.1192   -5.8103 N   0  0  0  0  0  0  0  0  0  0  0  0
   16.3010    0.3339   -5.8515 C   0  0  2  0  0  0  0  0  0  0  0  0
   15.0654    0.8884   -5.1274 C   0  0  0  0  0  0  0  0  0  0  0  0
   13.9308    0.4926   -5.3623 O   0  0  0  0  0  0  0  0  0  0  0  0
   15.3452    1.8809   -4.2055 N   0  0  0  0  0  0  0  0  0  0  0  0
   14.3029    2.5168   -3.4203 C   0  0  0  0  0  0  0  0  0  0  0  0
   14.1677    1.8861   -2.0587 C   0  0  0  0  0  0  0  0  0  0  0  0
   14.7034    2.4977   -0.9314 C   0  0  0  0  0  0  0  0  0  0  0  0
   14.6228    1.8902    0.3104 C   0  0  0  0  0  0  0  0  0  0  0  0
   14.0072    0.6505    0.4628 C   0  0  0  0  0  0  0  0  0  0  0  0
   13.9535   -0.0152    1.7597 C   0  0  0  0  0  0  0  0  0  0  0  0
   14.3000   -1.3105    2.1289 C   0  0  0  0  0  0  0  0  0  0  0  0
   14.9156   -2.3508    1.2715 C   0  0  0  0  0  0  0  0  0  0  0  0
   14.0569   -1.6289    3.4504 N   0  0  0  0  0  0  0  0  0  0  0  0
   13.5739   -0.5792    4.0755 C   0  0  0  0  0  0  0  0  0  0  0  0
   13.3925    0.8404    3.1445 S   0  0  0  0  0  0  0  0  0  0  0  0
   13.4527    0.0505   -0.6626 C   0  0  0  0  0  0  0  0  0  0  0  0
   13.5348    0.6585   -1.9029 C   0  0  0  0  0  0  0  0  0  0  0  0
   16.2411    0.6728   -7.3301 C   0  0  0  0  0  0  0  0  0  0  0  0
   15.5842   -0.5351   -7.9961 C   0  0  1  0  0  0  0  0  0  0  0  0
   16.3469   -0.9426   -9.1380 O   0  0  0  0  0  0  0  0  0  0  0  0
   15.5542   -1.6478   -6.9511 C   0  0  0  0  0  0  0  0  0  0  0  0
   19.1361   -5.9133   -5.8684 C   0  0  0  0  0  0  0  0  0  0  0  0
   18.6726   -3.6917   -4.7320 H   0  0  0  0  0  0  0  0  0  0  0  0
   15.8526   -3.6133   -5.4321 H   0  0  0  0  0  0  0  0  0  0  0  0
   17.8496   -3.5267   -2.2084 H   0  0  0  0  0  0  0  0  0  0  0  0
   16.4498   -3.5587   -1.1435 H   0  0  0  0  0  0  0  0  0  0  0  0
   16.8592   -2.0825   -1.9934 H   0  0  0  0  0  0  0  0  0  0  0  0
   15.0446   -5.5050   -3.8924 H   0  0  0  0  0  0  0  0  0  0  0  0
   15.0979   -5.3038   -2.1488 H   0  0  0  0  0  0  0  0  0  0  0  0
   16.5691   -5.7038   -3.0246 H   0  0  0  0  0  0  0  0  0  0  0  0
   13.8983   -3.1985   -3.9504 H   0  0  0  0  0  0  0  0  0  0  0  0
   14.7173   -1.7966   -3.2642 H   0  0  0  0  0  0  0  0  0  0  0  0
   14.1066   -3.0576   -2.2039 H   0  0  0  0  0  0  0  0  0  0  0  0
   17.2151    0.7181   -5.3847 H   0  0  0  0  0  0  0  0  0  0  0  0
   16.3062    2.1430   -4.0155 H   0  0  0  0  0  0  0  0  0  0  0  0
   14.5626    3.5765   -3.3315 H   0  0  0  0  0  0  0  0  0  0  0  0
   13.3480    2.4666   -3.9527 H   0  0  0  0  0  0  0  0  0  0  0  0
   15.2060    3.4568   -1.0143 H   0  0  0  0  0  0  0  0  0  0  0  0
   15.0724    2.3920    1.1619 H   0  0  0  0  0  0  0  0  0  0  0  0
   14.2207   -2.6816    0.4940 H   0  0  0  0  0  0  0  0  0  0  0  0
   15.1902   -3.2279    1.8643 H   0  0  0  0  0  0  0  0  0  0  0  0
   15.8136   -1.9767    0.7752 H   0  0  0  0  0  0  0  0  0  0  0  0
   13.3094   -0.6017    5.1228 H   0  0  0  0  0  0  0  0  0  0  0  0
   12.9464   -0.9070   -0.5852 H   0  0  0  0  0  0  0  0  0  0  0  0
   13.1114    0.1536   -2.7658 H   0  0  0  0  0  0  0  0  0  0  0  0
   15.6796    1.5920   -7.5280 H   0  0  0  0  0  0  0  0  0  0  0  0
   17.2531    0.8330   -7.7165 H   0  0  0  0  0  0  0  0  0  0  0  0
   14.5733   -0.2943   -8.3304 H   0  0  0  0  0  0  0  0  0  0  0  0
   17.2888   -0.8896   -8.8859 H   0  0  0  0  0  0  0  0  0  0  0  0
   16.0057   -2.5796   -7.2995 H   0  0  0  0  0  0  0  0  0  0  0  0
   14.5294   -1.8527   -6.6276 H   0  0  0  0  0  0  0  0  0  0  0  0
   19.1723   -6.2449   -6.9096 H   0  0  0  0  0  0  0  0  0  0  0  0
   19.3314   -6.7649   -5.2117 H   0  0  0  0  0  0  0  0  0  0  0  0
   19.9147   -5.1620   -5.7281 H   0  0  0  0  0  0  0  0  0  0  0  0
  1  2  2  0  0  0  0
  2  3  1  0  0  0  0
  2 33  1  0  0  0  0
  4  3  1  0  0  0  0
  3 34  1  0  0  0  0
  4  5  1  0  0  0  0
  4 35  1  0  0  0  0
  4  9  1  0  0  0  0
  5  6  1  0  0  0  0
  5  7  1  0  0  0  0
  5  8  1  0  0  0  0
  6 36  1  0  0  0  0
  6 37  1  0  0  0  0
  6 38  1  0  0  0  0
  7 39  1  0  0  0  0
  7 40  1  0  0  0  0
  7 41  1  0  0  0  0
  8 42  1  0  0  0  0
  8 43  1  0  0  0  0
  8 44  1  0  0  0  0
  9 10  2  0  0  0  0
  9 11  1  0  0  0  0
 11 32  1  0  0  0  0
 12 11  1  0  0  0  0
 12 29  1  0  0  0  0
 12 45  1  0  0  0  0
 12 13  1  0  0  0  0
 13 14  2  0  0  0  0
 13 15  1  0  0  0  0
 15 46  1  0  0  0  0
 15 16  1  0  0  0  0
 16 47  1  0  0  0  0
 16 48  1  0  0  0  0
 16 17  1  0  0  0  0
 17 18  1  0  0  0  0
 17 28  2  0  0  0  0
 18 49  1  0  0  0  0
 18 19  2  0  0  0  0
 19 50  1  0  0  0  0
 19 20  1  0  0  0  0
 20 27  2  0  0  0  0
 20 21  1  0  0  0  0
 21 22  2  0  0  0  0
 21 26  1  0  0  0  0
 22 23  1  0  0  0  0
 22 24  1  0  0  0  0
 23 51  1  0  0  0  0
 23 52  1  0  0  0  0
 23 53  1  0  0  0  0
 24 25  2  0  0  0  0
 25 54  1  0  0  0  0
 25 26  1  0  0  0  0
 27 55  1  0  0  0  0
 27 28  1  0  0  0  0
 28 56  1  0  0  0  0
 30 29  1  0  0  0  0
 29 57  1  0  0  0  0
 29 58  1  0  0  0  0
 30 32  1  0  0  0  0
 30 59  1  0  0  0  0
 30 31  1  0  0  0  0
 31 60  1  0  0  0  0
 32 61  1  0  0  0  0
 32 62  1  0  0  0  0
 33 63  1  0  0  0  0
 33 64  1  0  0  0  0
 33 65  1  0  0  0  0
M  ZZC   1 o1
M  ZZC   2 c1
M  ZZC   3 n1
M  ZZC   4 c2
M  ZZC   5 c3
M  ZZC   6 c4
M  ZZC   7 c5
M  ZZC   8 c6
M  ZZC   9 c7
M  ZZC  10 o2
M  ZZC  11 n2
M  ZZC  12 c8
M  ZZC  13 c9
M  ZZC  14 o3
M  ZZC  15 n3
M  ZZC  16 c10
M  ZZC  17 c11
M  ZZC  18 c12
M  ZZC  19 c13
M  ZZC  20 c14
M  ZZC  21 c15
M  ZZC  22 c16
M  ZZC  23 c17
M  ZZC  24 n4
M  ZZC  25 c18
M  ZZC  26 s1
M  ZZC  27 c19
M  ZZC  28 c20
M  ZZC  29 c21
M  ZZC  30 c22
M  ZZC  31 o4
M  ZZC  32 c23
M  ZZC  33 c24
M  ZZC  34 h11
M  ZZC  35 h21
M  ZZC  36 h41
M  ZZC  37 h42
M  ZZC  38 h43
M  ZZC  39 h51
M  ZZC  40 h52
M  ZZC  41 h53
M  ZZC  42 h61
M  ZZC  43 h62
M  ZZC  44 h63
M  ZZC  45 h81
M  ZZC  46 h31
M  ZZC  47 h101
M  ZZC  48 h102
M  ZZC  49 h121
M  ZZC  50 h131
M  ZZC  51 h171
M  ZZC  52 h172
M  ZZC  53 h173
M  ZZC  54 h181
M  ZZC  55 h191
M  ZZC  56 h201
M  ZZC  57 h211
M  ZZC  58 h212
M  ZZC  59 h221
M  ZZC  60 h01
M  ZZC  61 h231
M  ZZC  62 h232
M  ZZC  63 h241
M  ZZC  64 h242
M  ZZC  65 h243
M  ZZM   1 7
M  ZZI   1 81
M  ZZM   2 3
M  ZZI   2 121
M  ZZM   3 10
M  ZZI   3 211
M  ZZM   4 1
M  ZZI   4 113
M  ZZM   5 1
M  ZZI   5 110
M  ZZM   6 1
M  ZZI   6 111
M  ZZM   7 1
M  ZZI   7 111
M  ZZM   8 1
M  ZZI   8 111
M  ZZM   9 3
M  ZZI   9 121
M  ZZM  10 7
M  ZZI  10 81
M  ZZM  11 10
M  ZZI  11 192
M  ZZM  12 1
M  ZZI  12 113
M  ZZM  13 3
M  ZZI  13 121
M  ZZM  14 7
M  ZZI  14 81
M  ZZM  15 10
M  ZZI  15 211
M  ZZM  16 1
M  ZZI  16 112
M  ZZM  17 37
M  ZZI  17 124
M  ZZM  18 37
M  ZZI  18 125
M  ZZM  19 37
M  ZZI  19 125
M  ZZM  20 37
M  ZZI  20 124
M  ZZM  21 63
M  ZZI  21 104
M  ZZM  22 64
M  ZZI  22 105
M  ZZM  23 1
M  ZZI  23 111
M  ZZM  24 66
M  ZZI  24 222
M  ZZM  25 63
M  ZZI  25 104
M  ZZM  26 44
M  ZZI  26 248
M  ZZM  27 37
M  ZZI  27 125
M  ZZM  28 37
M  ZZI  28 125
M  ZZM  29 1
M  ZZI  29 112
M  ZZM  30 1
M  ZZI  30 113
M  ZZM  31 6
M  ZZI  31 60
M  ZZM  32 1
M  ZZI  32 112
M  ZZM  33 1
M  ZZI  33 111
M  ZZM  34 28
M  ZZI  34 11
M  ZZM  35 5
M  ZZI  35 1
M  ZZM  36 5
M  ZZI  36 1
M  ZZM  37 5
M  ZZI  37 1
M  ZZM  38 5
M  ZZI  38 1
M  ZZM  39 5
M  ZZI  39 1
M  ZZM  40 5
M  ZZI  40 1
M  ZZM  41 5
M  ZZI  41 1
M  ZZM  42 5
M  ZZI  42 1
M  ZZM  43 5
M  ZZI  43 1
M  ZZM  44 5
M  ZZI  44 1
M  ZZM  45 5
M  ZZI  45 1
M  ZZM  46 28
M  ZZI  46 11
M  ZZM  47 5
M  ZZI  47 1
M  ZZM  48 5
M  ZZI  48 1
M  ZZM  49 5
M  ZZI  49 1
M  ZZM  50 5
M  ZZI  50 1
M  ZZM  51 5
M  ZZI  51 1
M  ZZM  52 5
M  ZZI  52 1
M  ZZM  53 5
M  ZZI  53 1
M  ZZM  54 5
M  ZZI  54 1
M  ZZM  55 5
M  ZZI  55 1
M  ZZM  56 5
M  ZZI  56 1
M  ZZM  57 5
M  ZZI  57 1
M  ZZM  58 5
M  ZZI  58 1
M  ZZM  59 5
M  ZZI  59 1
M  ZZM  60 21
M  ZZI  60 20
M  ZZM  61 5
M  ZZI  61 1
M  ZZM  62 5
M  ZZI  62 1
M  ZZM  63 5
M  ZZI  63 1
M  ZZM  64 5
M  ZZI  64 1
M  ZZM  65 5
M  ZZI  65 1
M  END
> <IX>
1

> <NAME>
VHL_4CI3_22.pdb

> <Score>
-26.2576

> <Natom>
65

> <Nflex>
8

> <Hbond>
-7.312008

> <Hphob>
-6.912804

> <VwInt>
-27.712181

> <Dsolv>
15.491376

> <SolEl>
6.425673

> <Eintl>
6.54344

> <RecConf>
ND

> <projPath>
VHL_maps/

> <NAME_>
VHL_4CI3_22.pdb

$$$$
