VHL_1ERR_8.pdb
  MOLSOFT 04032206363D

 68 70  0  0  1  0  0  0  0  0999 V2000
   16.1413   -6.4302   -5.7109 O   0  0  0  0  0  0  0  0  0  0  0  0
   17.2427   -6.0599   -5.3363 C   0  0  0  0  0  0  0  0  0  0  0  0
   17.5260   -4.8077   -4.8222 N   0  0  0  0  0  0  0  0  0  0  0  0
   16.5436   -3.7250   -4.7080 C   0  0  1  0  0  0  0  0  0  0  0  0
   15.9009   -3.6156   -3.2853 C   0  0  0  0  0  0  0  0  0  0  0  0
   16.8762   -3.0309   -2.2513 C   0  0  0  0  0  0  0  0  0  0  0  0
   15.4500   -4.9920   -2.7734 C   0  0  0  0  0  0  0  0  0  0  0  0
   14.6522   -2.7206   -3.3296 C   0  0  0  0  0  0  0  0  0  0  0  0
   17.2371   -2.4225   -5.1503 C   0  0  0  0  0  0  0  0  0  0  0  0
   18.3845   -2.1706   -4.8120 O   0  0  0  0  0  0  0  0  0  0  0  0
   16.4967   -1.4913   -5.8796 N   0  0  0  0  0  0  0  0  0  0  0  0
   17.0367   -0.1646   -6.1521 C   0  0  2  0  0  0  0  0  0  0  0  0
   17.1251    0.7221   -4.9134 C   0  0  0  0  0  0  0  0  0  0  0  0
   16.3619    0.6265   -3.9618 O   0  0  0  0  0  0  0  0  0  0  0  0
   18.0908    1.7042   -5.0374 N   0  0  0  0  0  0  0  0  0  0  0  0
   18.1660    2.8286   -4.1210 C   0  0  1  0  0  0  0  0  0  0  0  0
   19.5931    3.3603   -4.0309 C   0  0  0  0  0  0  0  0  0  0  0  0
   17.2088    3.9261   -4.5396 C   0  0  0  0  0  0  0  0  0  0  0  0
   16.9954    4.2469   -5.8793 C   0  0  0  0  0  0  0  0  0  0  0  0
   16.1069    5.2429   -6.2420 C   0  0  0  0  0  0  0  0  0  0  0  0
   15.4148    5.9726   -5.2784 C   0  0  0  0  0  0  0  0  0  0  0  0
   14.4893    7.0392   -5.6533 C   0  0  0  0  0  0  0  0  0  0  0  0
   13.2455    7.3967   -5.1414 C   0  0  0  0  0  0  0  0  0  0  0  0
   12.4780    6.7354   -4.0617 C   0  0  0  0  0  0  0  0  0  0  0  0
   12.6717    8.5040   -5.7245 N   0  0  0  0  0  0  0  0  0  0  0  0
   13.4598    8.9736   -6.6626 C   0  0  0  0  0  0  0  0  0  0  0  0
   14.9120    8.1269   -6.9222 S   0  0  0  0  0  0  0  0  0  0  0  0
   15.6437    5.6643   -3.9405 C   0  0  0  0  0  0  0  0  0  0  0  0
   16.5210    4.6577   -3.5777 C   0  0  0  0  0  0  0  0  0  0  0  0
   16.0673    0.4731   -7.1425 C   0  0  0  0  0  0  0  0  0  0  0  0
   15.4077   -0.7114   -7.8162 C   0  0  1  0  0  0  0  0  0  0  0  0
   16.2051   -1.1563   -8.9230 O   0  0  0  0  0  0  0  0  0  0  0  0
   15.3526   -1.7706   -6.7236 C   0  0  0  0  0  0  0  0  0  0  0  0
   18.4337   -6.9763   -5.3956 C   0  0  0  0  0  0  0  0  0  0  0  0
   18.4732   -4.6149   -4.5213 H   0  0  0  0  0  0  0  0  0  0  0  0
   15.7716   -3.9603   -5.4276 H   0  0  0  0  0  0  0  0  0  0  0  0
   17.8099   -3.5950   -2.2168 H   0  0  0  0  0  0  0  0  0  0  0  0
   16.4486   -3.0512   -1.2435 H   0  0  0  0  0  0  0  0  0  0  0  0
   17.1280   -1.9880   -2.4654 H   0  0  0  0  0  0  0  0  0  0  0  0
   16.2976   -5.6707   -2.6692 H   0  0  0  0  0  0  0  0  0  0  0  0
   14.7446   -5.4664   -3.4628 H   0  0  0  0  0  0  0  0  0  0  0  0
   14.9479   -4.9283   -1.8044 H   0  0  0  0  0  0  0  0  0  0  0  0
   14.1571   -2.6770   -2.3546 H   0  0  0  0  0  0  0  0  0  0  0  0
   13.9191   -3.0721   -4.0594 H   0  0  0  0  0  0  0  0  0  0  0  0
   14.9058   -1.6927   -3.6086 H   0  0  0  0  0  0  0  0  0  0  0  0
   18.0327   -0.2812   -6.5841 H   0  0  0  0  0  0  0  0  0  0  0  0
   18.6916    1.7133   -5.8547 H   0  0  0  0  0  0  0  0  0  0  0  0
   17.8693    2.4583   -3.1330 H   0  0  0  0  0  0  0  0  0  0  0  0
   20.2845    2.5917   -3.6716 H   0  0  0  0  0  0  0  0  0  0  0  0
   19.6640    4.2166   -3.3515 H   0  0  0  0  0  0  0  0  0  0  0  0
   19.9428    3.6909   -5.0125 H   0  0  0  0  0  0  0  0  0  0  0  0
   17.5191    3.7133   -6.6662 H   0  0  0  0  0  0  0  0  0  0  0  0
   15.9587    5.4378   -7.3001 H   0  0  0  0  0  0  0  0  0  0  0  0
   11.4033    6.8130   -4.2498 H   0  0  0  0  0  0  0  0  0  0  0  0
   12.6865    7.2118   -3.0999 H   0  0  0  0  0  0  0  0  0  0  0  0
   12.7222    5.6733   -3.9805 H   0  0  0  0  0  0  0  0  0  0  0  0
   13.2130    9.8490   -7.2413 H   0  0  0  0  0  0  0  0  0  0  0  0
   15.1442    6.2191   -3.1526 H   0  0  0  0  0  0  0  0  0  0  0  0
   16.6673    4.4461   -2.5224 H   0  0  0  0  0  0  0  0  0  0  0  0
   15.3106    1.0707   -6.6208 H   0  0  0  0  0  0  0  0  0  0  0  0
   16.5872    1.1301   -7.8480 H   0  0  0  0  0  0  0  0  0  0  0  0
   14.4145   -0.4639   -8.1928 H   0  0  0  0  0  0  0  0  0  0  0  0
   17.1402   -1.0963   -8.6533 H   0  0  0  0  0  0  0  0  0  0  0  0
   15.4122   -2.7825   -7.1316 H   0  0  0  0  0  0  0  0  0  0  0  0
   14.4533   -1.6614   -6.1096 H   0  0  0  0  0  0  0  0  0  0  0  0
   18.4784   -7.4398   -6.3845 H   0  0  0  0  0  0  0  0  0  0  0  0
   18.3218   -7.7534   -4.6356 H   0  0  0  0  0  0  0  0  0  0  0  0
   19.3698   -6.4364   -5.2279 H   0  0  0  0  0  0  0  0  0  0  0  0
  1  2  2  0  0  0  0
  2  3  1  0  0  0  0
  2 34  1  0  0  0  0
  4  3  1  0  0  0  0
  3 35  1  0  0  0  0
  4  5  1  0  0  0  0
  4 36  1  0  0  0  0
  4  9  1  0  0  0  0
  5  6  1  0  0  0  0
  5  7  1  0  0  0  0
  5  8  1  0  0  0  0
  6 37  1  0  0  0  0
  6 38  1  0  0  0  0
  6 39  1  0  0  0  0
  7 40  1  0  0  0  0
  7 41  1  0  0  0  0
  7 42  1  0  0  0  0
  8 43  1  0  0  0  0
  8 44  1  0  0  0  0
  8 45  1  0  0  0  0
  9 10  2  0  0  0  0
  9 11  1  0  0  0  0
 11 33  1  0  0  0  0
 12 11  1  0  0  0  0
 12 30  1  0  0  0  0
 12 46  1  0  0  0  0
 12 13  1  0  0  0  0
 13 14  2  0  0  0  0
 13 15  1  0  0  0  0
 15 47  1  0  0  0  0
 16 15  1  0  0  0  0
 16 48  1  0  0  0  0
 16 17  1  0  0  0  0
 16 18  1  0  0  0  0
 17 49  1  0  0  0  0
 17 50  1  0  0  0  0
 17 51  1  0  0  0  0
 18 19  1  0  0  0  0
 18 29  2  0  0  0  0
 19 52  1  0  0  0  0
 19 20  2  0  0  0  0
 20 53  1  0  0  0  0
 20 21  1  0  0  0  0
 21 28  2  0  0  0  0
 21 22  1  0  0  0  0
 22 23  2  0  0  0  0
 22 27  1  0  0  0  0
 23 24  1  0  0  0  0
 23 25  1  0  0  0  0
 24 54  1  0  0  0  0
 24 55  1  0  0  0  0
 24 56  1  0  0  0  0
 25 26  2  0  0  0  0
 26 57  1  0  0  0  0
 26 27  1  0  0  0  0
 28 58  1  0  0  0  0
 28 29  1  0  0  0  0
 29 59  1  0  0  0  0
 31 30  1  0  0  0  0
 30 60  1  0  0  0  0
 30 61  1  0  0  0  0
 31 33  1  0  0  0  0
 31 62  1  0  0  0  0
 31 32  1  0  0  0  0
 32 63  1  0  0  0  0
 33 64  1  0  0  0  0
 33 65  1  0  0  0  0
 34 66  1  0  0  0  0
 34 67  1  0  0  0  0
 34 68  1  0  0  0  0
M  ZZC   1 o1
M  ZZC   2 c1
M  ZZC   3 n1
M  ZZC   4 c2
M  ZZC   5 c3
M  ZZC   6 c4
M  ZZC   7 c5
M  ZZC   8 c6
M  ZZC   9 c7
M  ZZC  10 o2
M  ZZC  11 n2
M  ZZC  12 c8
M  ZZC  13 c9
M  ZZC  14 o3
M  ZZC  15 n3
M  ZZC  16 c10
M  ZZC  17 c11
M  ZZC  18 c12
M  ZZC  19 c13
M  ZZC  20 c14
M  ZZC  21 c15
M  ZZC  22 c16
M  ZZC  23 c17
M  ZZC  24 c18
M  ZZC  25 n4
M  ZZC  26 c19
M  ZZC  27 s1
M  ZZC  28 c20
M  ZZC  29 c21
M  ZZC  30 c22
M  ZZC  31 c23
M  ZZC  32 o4
M  ZZC  33 c24
M  ZZC  34 c25
M  ZZC  35 h11
M  ZZC  36 h21
M  ZZC  37 h41
M  ZZC  38 h42
M  ZZC  39 h43
M  ZZC  40 h51
M  ZZC  41 h52
M  ZZC  42 h53
M  ZZC  43 h61
M  ZZC  44 h62
M  ZZC  45 h63
M  ZZC  46 h81
M  ZZC  47 h31
M  ZZC  48 h101
M  ZZC  49 h111
M  ZZC  50 h112
M  ZZC  51 h113
M  ZZC  52 h131
M  ZZC  53 h141
M  ZZC  54 h181
M  ZZC  55 h182
M  ZZC  56 h183
M  ZZC  57 h191
M  ZZC  58 h201
M  ZZC  59 h211
M  ZZC  60 h221
M  ZZC  61 h222
M  ZZC  62 h231
M  ZZC  63 h01
M  ZZC  64 h241
M  ZZC  65 h242
M  ZZC  66 h251
M  ZZC  67 h252
M  ZZC  68 h253
M  ZZM   1 7
M  ZZI   1 81
M  ZZM   2 3
M  ZZI   2 121
M  ZZM   3 10
M  ZZI   3 211
M  ZZM   4 1
M  ZZI   4 113
M  ZZM   5 1
M  ZZI   5 110
M  ZZM   6 1
M  ZZI   6 111
M  ZZM   7 1
M  ZZI   7 111
M  ZZM   8 1
M  ZZI   8 111
M  ZZM   9 3
M  ZZI   9 121
M  ZZM  10 7
M  ZZI  10 81
M  ZZM  11 10
M  ZZI  11 192
M  ZZM  12 1
M  ZZI  12 113
M  ZZM  13 3
M  ZZI  13 121
M  ZZM  14 7
M  ZZI  14 81
M  ZZM  15 10
M  ZZI  15 211
M  ZZM  16 1
M  ZZI  16 113
M  ZZM  17 1
M  ZZI  17 111
M  ZZM  18 37
M  ZZI  18 124
M  ZZM  19 37
M  ZZI  19 125
M  ZZM  20 37
M  ZZI  20 125
M  ZZM  21 37
M  ZZI  21 124
M  ZZM  22 63
M  ZZI  22 104
M  ZZM  23 64
M  ZZI  23 105
M  ZZM  24 1
M  ZZI  24 111
M  ZZM  25 66
M  ZZI  25 222
M  ZZM  26 63
M  ZZI  26 104
M  ZZM  27 44
M  ZZI  27 248
M  ZZM  28 37
M  ZZI  28 125
M  ZZM  29 37
M  ZZI  29 125
M  ZZM  30 1
M  ZZI  30 112
M  ZZM  31 1
M  ZZI  31 113
M  ZZM  32 6
M  ZZI  32 60
M  ZZM  33 1
M  ZZI  33 112
M  ZZM  34 1
M  ZZI  34 111
M  ZZM  35 28
M  ZZI  35 11
M  ZZM  36 5
M  ZZI  36 1
M  ZZM  37 5
M  ZZI  37 1
M  ZZM  38 5
M  ZZI  38 1
M  ZZM  39 5
M  ZZI  39 1
M  ZZM  40 5
M  ZZI  40 1
M  ZZM  41 5
M  ZZI  41 1
M  ZZM  42 5
M  ZZI  42 1
M  ZZM  43 5
M  ZZI  43 1
M  ZZM  44 5
M  ZZI  44 1
M  ZZM  45 5
M  ZZI  45 1
M  ZZM  46 5
M  ZZI  46 1
M  ZZM  47 28
M  ZZI  47 11
M  ZZM  48 5
M  ZZI  48 1
M  ZZM  49 5
M  ZZI  49 1
M  ZZM  50 5
M  ZZI  50 1
M  ZZM  51 5
M  ZZI  51 1
M  ZZM  52 5
M  ZZI  52 1
M  ZZM  53 5
M  ZZI  53 1
M  ZZM  54 5
M  ZZI  54 1
M  ZZM  55 5
M  ZZI  55 1
M  ZZM  56 5
M  ZZI  56 1
M  ZZM  57 5
M  ZZI  57 1
M  ZZM  58 5
M  ZZI  58 1
M  ZZM  59 5
M  ZZI  59 1
M  ZZM  60 5
M  ZZI  60 1
M  ZZM  61 5
M  ZZI  61 1
M  ZZM  62 5
M  ZZI  62 1
M  ZZM  63 21
M  ZZI  63 20
M  ZZM  64 5
M  ZZI  64 1
M  ZZM  65 5
M  ZZI  65 1
M  ZZM  66 5
M  ZZI  66 1
M  ZZM  67 5
M  ZZI  67 1
M  ZZM  68 5
M  ZZI  68 1
M  END
> <IX>
1

> <NAME>
VHL_1ERR_8.pdb

> <Score>
-22.954026

> <Natom>
68

> <Nflex>
8

> <Hbond>
-7.968206

> <Hphob>
-6.316914

> <VwInt>
-28.300512

> <Dsolv>
20.320753

> <SolEl>
8.455448

> <Eintl>
6.86203

> <RecConf>
ND

> <projPath>
VHL_maps/

> <NAME_>
VHL_1ERR_8.pdb

$$$$
