VHL_5G0I_14.pdb
  MOLSOFT 04032206393D

 65 67  0  0  1  0  0  0  0  0999 V2000
   11.6661   -0.1678   -6.6380 C   0  0  0  0  0  0  0  0  0  0  0  0
   12.9965   -0.8173   -6.4012 C   0  0  0  0  0  0  0  0  0  0  0  0
   13.2838   -1.9015   -6.8789 O   0  0  0  0  0  0  0  0  0  0  0  0
   13.8168   -0.0755   -5.5886 N   0  0  0  0  0  0  0  0  0  0  0  0
   15.1428   -0.5404   -5.1793 C   0  0  1  0  0  0  0  0  0  0  0  0
   16.1480    0.6502   -5.1066 C   0  0  0  0  0  0  0  0  0  0  0  0
   15.7431    1.7021   -4.0576 C   0  0  0  0  0  0  0  0  0  0  0  0
   17.5594    0.1610   -4.7655 C   0  0  0  0  0  0  0  0  0  0  0  0
   16.2217    1.3345   -6.4848 C   0  0  0  0  0  0  0  0  0  0  0  0
   14.9122   -1.2917   -3.8511 C   0  0  0  0  0  0  0  0  0  0  0  0
   14.0819   -0.8878   -3.0454 O   0  0  0  0  0  0  0  0  0  0  0  0
   15.6930   -2.4189   -3.5701 N   0  0  0  0  0  0  0  0  0  0  0  0
   15.4988   -3.1457   -2.3208 C   0  0  2  0  0  0  0  0  0  0  0  0
   15.8832   -2.3083   -1.0962 C   0  0  0  0  0  0  0  0  0  0  0  0
   16.6861   -1.3856   -1.1394 O   0  0  0  0  0  0  0  0  0  0  0  0
   15.2916   -2.7477    0.0728 N   0  0  0  0  0  0  0  0  0  0  0  0
   15.5268   -2.0872    1.3409 C   0  0  0  0  0  0  0  0  0  0  0  0
   15.3097   -3.0194    2.5025 C   0  0  0  0  0  0  0  0  0  0  0  0
   14.1496   -2.9562    3.2659 C   0  0  0  0  0  0  0  0  0  0  0  0
   13.9435   -3.8403    4.3116 C   0  0  0  0  0  0  0  0  0  0  0  0
   14.8856   -4.8177    4.6242 C   0  0  0  0  0  0  0  0  0  0  0  0
   14.6409   -5.7695    5.7055 C   0  0  0  0  0  0  0  0  0  0  0  0
   13.5077   -6.5095    6.0302 C   0  0  0  0  0  0  0  0  0  0  0  0
   12.2122   -6.5495    5.3088 C   0  0  0  0  0  0  0  0  0  0  0  0
   13.6251   -7.2942    7.1603 N   0  0  0  0  0  0  0  0  0  0  0  0
   14.8271   -7.1608    7.6726 C   0  0  0  0  0  0  0  0  0  0  0  0
   15.8840   -6.1055    6.8500 S   0  0  0  0  0  0  0  0  0  0  0  0
   16.0547   -4.8665    3.8666 C   0  0  0  0  0  0  0  0  0  0  0  0
   16.2613   -3.9814    2.8220 C   0  0  0  0  0  0  0  0  0  0  0  0
   16.4380   -4.3419   -2.3886 C   0  0  0  0  0  0  0  0  0  0  0  0
   16.7549   -4.5197   -3.8608 C   0  0  1  0  0  0  0  0  0  0  0  0
   15.8121   -5.4127   -4.4461 O   0  0  0  0  0  0  0  0  0  0  0  0
   16.6102   -3.1242   -4.4519 C   0  0  0  0  0  0  0  0  0  0  0  0
   11.8100    0.8487   -7.0109 H   0  0  0  0  0  0  0  0  0  0  0  0
   11.1063   -0.1329   -5.7001 H   0  0  0  0  0  0  0  0  0  0  0  0
   11.1027   -0.7443   -7.3732 H   0  0  0  0  0  0  0  0  0  0  0  0
   13.4293    0.7465   -5.1394 H   0  0  0  0  0  0  0  0  0  0  0  0
   15.4797   -1.2516   -5.9386 H   0  0  0  0  0  0  0  0  0  0  0  0
   14.7586    2.1245   -4.2839 H   0  0  0  0  0  0  0  0  0  0  0  0
   16.4476    2.5386   -4.0273 H   0  0  0  0  0  0  0  0  0  0  0  0
   15.6802    1.2825   -3.0494 H   0  0  0  0  0  0  0  0  0  0  0  0
   17.5984   -0.2872   -3.7671 H   0  0  0  0  0  0  0  0  0  0  0  0
   18.2721    0.9908   -4.7729 H   0  0  0  0  0  0  0  0  0  0  0  0
   17.9096   -0.6010   -5.4677 H   0  0  0  0  0  0  0  0  0  0  0  0
   16.9722    2.1317   -6.4979 H   0  0  0  0  0  0  0  0  0  0  0  0
   15.2690    1.7917   -6.7704 H   0  0  0  0  0  0  0  0  0  0  0  0
   16.4920    0.6217   -7.2716 H   0  0  0  0  0  0  0  0  0  0  0  0
   14.4479   -3.4540   -2.2606 H   0  0  0  0  0  0  0  0  0  0  0  0
   14.6079   -3.4948    0.0420 H   0  0  0  0  0  0  0  0  0  0  0  0
   16.5441   -1.6816    1.3661 H   0  0  0  0  0  0  0  0  0  0  0  0
   14.8433   -1.2329    1.3941 H   0  0  0  0  0  0  0  0  0  0  0  0
   13.3884   -2.2127    3.0457 H   0  0  0  0  0  0  0  0  0  0  0  0
   13.0280   -3.7548    4.8888 H   0  0  0  0  0  0  0  0  0  0  0  0
   11.5257   -5.7939    5.7021 H   0  0  0  0  0  0  0  0  0  0  0  0
   11.7186   -7.5194    5.4074 H   0  0  0  0  0  0  0  0  0  0  0  0
   12.3616   -6.3487    4.2445 H   0  0  0  0  0  0  0  0  0  0  0  0
   15.1380   -7.6873    8.5638 H   0  0  0  0  0  0  0  0  0  0  0  0
   16.8148   -5.6168    4.0647 H   0  0  0  0  0  0  0  0  0  0  0  0
   17.1774   -4.0551    2.2425 H   0  0  0  0  0  0  0  0  0  0  0  0
   17.3566   -4.1208   -1.8363 H   0  0  0  0  0  0  0  0  0  0  0  0
   15.9768   -5.2292   -1.9437 H   0  0  0  0  0  0  0  0  0  0  0  0
   17.7509   -4.9359   -4.0411 H   0  0  0  0  0  0  0  0  0  0  0  0
   15.9606   -6.3008   -4.0721 H   0  0  0  0  0  0  0  0  0  0  0  0
   16.2417   -3.1350   -5.4812 H   0  0  0  0  0  0  0  0  0  0  0  0
   17.5692   -2.6017   -4.4118 H   0  0  0  0  0  0  0  0  0  0  0  0
  1 34  1  0  0  0  0
  1 35  1  0  0  0  0
  1 36  1  0  0  0  0
  1  2  1  0  0  0  0
  2  3  2  0  0  0  0
  2  4  1  0  0  0  0
  4 37  1  0  0  0  0
  5  4  1  0  0  0  0
  5 38  1  0  0  0  0
  5  6  1  0  0  0  0
  5 10  1  0  0  0  0
  6  7  1  0  0  0  0
  6  8  1  0  0  0  0
  6  9  1  0  0  0  0
  7 39  1  0  0  0  0
  7 40  1  0  0  0  0
  7 41  1  0  0  0  0
  8 42  1  0  0  0  0
  8 43  1  0  0  0  0
  8 44  1  0  0  0  0
  9 45  1  0  0  0  0
  9 46  1  0  0  0  0
  9 47  1  0  0  0  0
 10 11  2  0  0  0  0
 10 12  1  0  0  0  0
 12 33  1  0  0  0  0
 13 12  1  0  0  0  0
 13 30  1  0  0  0  0
 13 48  1  0  0  0  0
 13 14  1  0  0  0  0
 14 15  2  0  0  0  0
 14 16  1  0  0  0  0
 16 49  1  0  0  0  0
 16 17  1  0  0  0  0
 17 50  1  0  0  0  0
 17 51  1  0  0  0  0
 17 18  1  0  0  0  0
 18 19  1  0  0  0  0
 18 29  2  0  0  0  0
 19 52  1  0  0  0  0
 19 20  2  0  0  0  0
 20 53  1  0  0  0  0
 20 21  1  0  0  0  0
 21 28  2  0  0  0  0
 21 22  1  0  0  0  0
 22 23  2  0  0  0  0
 22 27  1  0  0  0  0
 23 24  1  0  0  0  0
 23 25  1  0  0  0  0
 24 54  1  0  0  0  0
 24 55  1  0  0  0  0
 24 56  1  0  0  0  0
 25 26  2  0  0  0  0
 26 57  1  0  0  0  0
 26 27  1  0  0  0  0
 28 58  1  0  0  0  0
 28 29  1  0  0  0  0
 29 59  1  0  0  0  0
 31 30  1  0  0  0  0
 30 60  1  0  0  0  0
 30 61  1  0  0  0  0
 31 33  1  0  0  0  0
 31 62  1  0  0  0  0
 31 32  1  0  0  0  0
 32 63  1  0  0  0  0
 33 64  1  0  0  0  0
 33 65  1  0  0  0  0
M  ZZC   1 c1
M  ZZC   2 c2
M  ZZC   3 o1
M  ZZC   4 n1
M  ZZC   5 c3
M  ZZC   6 c4
M  ZZC   7 c5
M  ZZC   8 c6
M  ZZC   9 c7
M  ZZC  10 c8
M  ZZC  11 o2
M  ZZC  12 n2
M  ZZC  13 c9
M  ZZC  14 c10
M  ZZC  15 o3
M  ZZC  16 n3
M  ZZC  17 c11
M  ZZC  18 c12
M  ZZC  19 c13
M  ZZC  20 c14
M  ZZC  21 c15
M  ZZC  22 c16
M  ZZC  23 c17
M  ZZC  24 c18
M  ZZC  25 n4
M  ZZC  26 c19
M  ZZC  27 s1
M  ZZC  28 c20
M  ZZC  29 c21
M  ZZC  30 c22
M  ZZC  31 c23
M  ZZC  32 o4
M  ZZC  33 c24
M  ZZC  34 h11
M  ZZC  35 h12
M  ZZC  36 h13
M  ZZC  37 h01
M  ZZC  38 h31
M  ZZC  39 h51
M  ZZC  40 h52
M  ZZC  41 h53
M  ZZC  42 h61
M  ZZC  43 h62
M  ZZC  44 h63
M  ZZC  45 h71
M  ZZC  46 h72
M  ZZC  47 h73
M  ZZC  48 h91
M  ZZC  49 h02
M  ZZC  50 h111
M  ZZC  51 h112
M  ZZC  52 h131
M  ZZC  53 h141
M  ZZC  54 h181
M  ZZC  55 h182
M  ZZC  56 h183
M  ZZC  57 h191
M  ZZC  58 h201
M  ZZC  59 h211
M  ZZC  60 h221
M  ZZC  61 h222
M  ZZC  62 h231
M  ZZC  63 h41
M  ZZC  64 h241
M  ZZC  65 h242
M  ZZM   1 1
M  ZZI   1 111
M  ZZM   2 3
M  ZZI   2 121
M  ZZM   3 7
M  ZZI   3 81
M  ZZM   4 10
M  ZZI   4 211
M  ZZM   5 1
M  ZZI   5 113
M  ZZM   6 1
M  ZZI   6 110
M  ZZM   7 1
M  ZZI   7 111
M  ZZM   8 1
M  ZZI   8 111
M  ZZM   9 1
M  ZZI   9 111
M  ZZM  10 3
M  ZZI  10 121
M  ZZM  11 7
M  ZZI  11 81
M  ZZM  12 10
M  ZZI  12 192
M  ZZM  13 1
M  ZZI  13 113
M  ZZM  14 3
M  ZZI  14 121
M  ZZM  15 7
M  ZZI  15 81
M  ZZM  16 10
M  ZZI  16 211
M  ZZM  17 1
M  ZZI  17 112
M  ZZM  18 37
M  ZZI  18 124
M  ZZM  19 37
M  ZZI  19 125
M  ZZM  20 37
M  ZZI  20 125
M  ZZM  21 37
M  ZZI  21 124
M  ZZM  22 63
M  ZZI  22 104
M  ZZM  23 64
M  ZZI  23 105
M  ZZM  24 1
M  ZZI  24 111
M  ZZM  25 66
M  ZZI  25 222
M  ZZM  26 63
M  ZZI  26 104
M  ZZM  27 44
M  ZZI  27 248
M  ZZM  28 37
M  ZZI  28 125
M  ZZM  29 37
M  ZZI  29 125
M  ZZM  30 1
M  ZZI  30 112
M  ZZM  31 1
M  ZZI  31 113
M  ZZM  32 6
M  ZZI  32 60
M  ZZM  33 1
M  ZZI  33 112
M  ZZM  34 5
M  ZZI  34 1
M  ZZM  35 5
M  ZZI  35 1
M  ZZM  36 5
M  ZZI  36 1
M  ZZM  37 28
M  ZZI  37 11
M  ZZM  38 5
M  ZZI  38 1
M  ZZM  39 5
M  ZZI  39 1
M  ZZM  40 5
M  ZZI  40 1
M  ZZM  41 5
M  ZZI  41 1
M  ZZM  42 5
M  ZZI  42 1
M  ZZM  43 5
M  ZZI  43 1
M  ZZM  44 5
M  ZZI  44 1
M  ZZM  45 5
M  ZZI  45 1
M  ZZM  46 5
M  ZZI  46 1
M  ZZM  47 5
M  ZZI  47 1
M  ZZM  48 5
M  ZZI  48 1
M  ZZM  49 28
M  ZZI  49 11
M  ZZM  50 5
M  ZZI  50 1
M  ZZM  51 5
M  ZZI  51 1
M  ZZM  52 5
M  ZZI  52 1
M  ZZM  53 5
M  ZZI  53 1
M  ZZM  54 5
M  ZZI  54 1
M  ZZM  55 5
M  ZZI  55 1
M  ZZM  56 5
M  ZZI  56 1
M  ZZM  57 5
M  ZZI  57 1
M  ZZM  58 5
M  ZZI  58 1
M  ZZM  59 5
M  ZZI  59 1
M  ZZM  60 5
M  ZZI  60 1
M  ZZM  61 5
M  ZZI  61 1
M  ZZM  62 5
M  ZZI  62 1
M  ZZM  63 21
M  ZZI  63 20
M  ZZM  64 5
M  ZZI  64 1
M  ZZM  65 5
M  ZZI  65 1
M  END
> <IX>
1

> <NAME>
VHL_5G0I_14.pdb

> <Score>
-14.088436

> <Natom>
65

> <Nflex>
8

> <Hbond>
-2.972631

> <Hphob>
-6.155004

> <VwInt>
-26.308393

> <Dsolv>
16.357525

> <SolEl>
7.58006

> <Eintl>
2.989304

> <RecConf>
ND

> <projPath>
VHL_maps/

> <NAME_>
VHL_5G0I_14.pdb

$$$$
