VHL_5EHR_12.pdb
  MOLSOFT 04032206403D

 68 70  0  0  1  0  0  0  0  0999 V2000
   18.7565    5.3374   -3.9354 C   0  0  0  0  0  0  0  0  0  0  0  0
   17.5258    5.7221   -4.7110 C   0  0  0  0  0  0  0  0  0  0  0  0
   17.5803    6.1179   -5.8656 O   0  0  0  0  0  0  0  0  0  0  0  0
   16.3642    5.5855   -3.9780 N   0  0  0  0  0  0  0  0  0  0  0  0
   15.0419    5.8753   -4.5423 C   0  0  2  0  0  0  0  0  0  0  0  0
   14.0475    6.4304   -3.4773 C   0  0  0  0  0  0  0  0  0  0  0  0
   14.6621    7.6613   -2.7896 C   0  0  0  0  0  0  0  0  0  0  0  0
   13.6996    5.3994   -2.3892 C   0  0  0  0  0  0  0  0  0  0  0  0
   12.7480    6.8935   -4.1528 C   0  0  0  0  0  0  0  0  0  0  0  0
   14.6010    4.5559   -5.2107 C   0  0  0  0  0  0  0  0  0  0  0  0
   14.5501    3.5095   -4.5750 O   0  0  0  0  0  0  0  0  0  0  0  0
   14.3645    4.5740   -6.5874 N   0  0  0  0  0  0  0  0  0  0  0  0
   14.0198    3.3675   -7.3416 C   0  0  2  0  0  0  0  0  0  0  0  0
   15.2656    2.5497   -7.6918 C   0  0  0  0  0  0  0  0  0  0  0  0
   15.5260    2.2272   -8.8415 O   0  0  0  0  0  0  0  0  0  0  0  0
   16.0080    2.1410   -6.6037 N   0  0  0  0  0  0  0  0  0  0  0  0
   17.2094    1.3418   -6.7354 C   0  0  1  0  0  0  0  0  0  0  0  0
   18.4242    2.1312   -6.2526 C   0  0  0  0  0  0  0  0  0  0  0  0
   17.0059   -0.0005   -6.0715 C   0  0  0  0  0  0  0  0  0  0  0  0
   17.4307   -0.2919   -4.7759 C   0  0  0  0  0  0  0  0  0  0  0  0
   17.2706   -1.5617   -4.2478 C   0  0  0  0  0  0  0  0  0  0  0  0
   16.6776   -2.5709   -4.9954 C   0  0  0  0  0  0  0  0  0  0  0  0
   16.5926   -3.9229   -4.4714 C   0  0  0  0  0  0  0  0  0  0  0  0
   15.9345   -4.4217   -3.3574 C   0  0  0  0  0  0  0  0  0  0  0  0
   15.0822   -3.6709   -2.4096 C   0  0  0  0  0  0  0  0  0  0  0  0
   16.1067   -5.7697   -3.1410 N   0  0  0  0  0  0  0  0  0  0  0  0
   16.8787   -6.2770   -4.0765 C   0  0  0  0  0  0  0  0  0  0  0  0
   17.4290   -5.1972   -5.2700 S   0  0  0  0  0  0  0  0  0  0  0  0
   16.1932   -2.2634   -6.2597 C   0  0  0  0  0  0  0  0  0  0  0  0
   16.3520   -0.9982   -6.7859 C   0  0  0  0  0  0  0  0  0  0  0  0
   13.3337    3.8891   -8.5961 C   0  0  0  0  0  0  0  0  0  0  0  0
   13.9839    5.2404   -8.8255 C   0  0  1  0  0  0  0  0  0  0  0  0
   13.0742    6.1052   -9.4931 O   0  0  0  0  0  0  0  0  0  0  0  0
   14.2922    5.7531   -7.4311 C   0  0  0  0  0  0  0  0  0  0  0  0
   18.6242    4.3495   -3.4833 H   0  0  0  0  0  0  0  0  0  0  0  0
   18.9409    6.0759   -3.1494 H   0  0  0  0  0  0  0  0  0  0  0  0
   19.6202    5.3019   -4.6061 H   0  0  0  0  0  0  0  0  0  0  0  0
   16.4204    5.1714   -3.0538 H   0  0  0  0  0  0  0  0  0  0  0  0
   15.1930    6.6454   -5.3022 H   0  0  0  0  0  0  0  0  0  0  0  0
   15.5533    7.4045   -2.2085 H   0  0  0  0  0  0  0  0  0  0  0  0
   13.9536    8.1274   -2.0966 H   0  0  0  0  0  0  0  0  0  0  0  0
   14.9508    8.4246   -3.5197 H   0  0  0  0  0  0  0  0  0  0  0  0
   13.1101    4.5663   -2.7818 H   0  0  0  0  0  0  0  0  0  0  0  0
   13.1058    5.8579   -1.5945 H   0  0  0  0  0  0  0  0  0  0  0  0
   14.5902    4.9830   -1.9110 H   0  0  0  0  0  0  0  0  0  0  0  0
   12.0420    7.3087   -3.4266 H   0  0  0  0  0  0  0  0  0  0  0  0
   12.2419    6.0663   -4.6610 H   0  0  0  0  0  0  0  0  0  0  0  0
   12.9316    7.6614   -4.9042 H   0  0  0  0  0  0  0  0  0  0  0  0
   13.3558    2.7234   -6.7543 H   0  0  0  0  0  0  0  0  0  0  0  0
   15.6807    2.3712   -5.6679 H   0  0  0  0  0  0  0  0  0  0  0  0
   17.3787    1.1473   -7.7988 H   0  0  0  0  0  0  0  0  0  0  0  0
   18.5498    3.0443   -6.8432 H   0  0  0  0  0  0  0  0  0  0  0  0
   19.3421    1.5431   -6.3473 H   0  0  0  0  0  0  0  0  0  0  0  0
   18.3251    2.4407   -5.2079 H   0  0  0  0  0  0  0  0  0  0  0  0
   17.9156    0.4620   -4.1644 H   0  0  0  0  0  0  0  0  0  0  0  0
   17.6473   -1.7670   -3.2500 H   0  0  0  0  0  0  0  0  0  0  0  0
   15.6554   -2.8853   -1.9092 H   0  0  0  0  0  0  0  0  0  0  0  0
   14.6792   -4.3366   -1.6401 H   0  0  0  0  0  0  0  0  0  0  0  0
   14.2480   -3.1910   -2.9283 H   0  0  0  0  0  0  0  0  0  0  0  0
   17.1551   -7.3216   -4.1015 H   0  0  0  0  0  0  0  0  0  0  0  0
   15.7111   -3.0164   -6.8715 H   0  0  0  0  0  0  0  0  0  0  0  0
   15.9874   -0.8009   -7.7899 H   0  0  0  0  0  0  0  0  0  0  0  0
   13.4173    3.2374   -9.4718 H   0  0  0  0  0  0  0  0  0  0  0  0
   12.2647    4.0178   -8.4230 H   0  0  0  0  0  0  0  0  0  0  0  0
   14.9053    5.1490   -9.4126 H   0  0  0  0  0  0  0  0  0  0  0  0
   13.2171    5.9720  -10.4466 H   0  0  0  0  0  0  0  0  0  0  0  0
   13.5155    6.4257   -7.0514 H   0  0  0  0  0  0  0  0  0  0  0  0
   15.2465    6.2879   -7.4156 H   0  0  0  0  0  0  0  0  0  0  0  0
  1 35  1  0  0  0  0
  1 36  1  0  0  0  0
  1 37  1  0  0  0  0
  1  2  1  0  0  0  0
  2  3  2  0  0  0  0
  2  4  1  0  0  0  0
  4 38  1  0  0  0  0
  5  4  1  0  0  0  0
  5 39  1  0  0  0  0
  5  6  1  0  0  0  0
  5 10  1  0  0  0  0
  6  7  1  0  0  0  0
  6  8  1  0  0  0  0
  6  9  1  0  0  0  0
  7 40  1  0  0  0  0
  7 41  1  0  0  0  0
  7 42  1  0  0  0  0
  8 43  1  0  0  0  0
  8 44  1  0  0  0  0
  8 45  1  0  0  0  0
  9 46  1  0  0  0  0
  9 47  1  0  0  0  0
  9 48  1  0  0  0  0
 10 11  2  0  0  0  0
 10 12  1  0  0  0  0
 12 34  1  0  0  0  0
 13 12  1  0  0  0  0
 13 31  1  0  0  0  0
 13 49  1  0  0  0  0
 13 14  1  0  0  0  0
 14 15  2  0  0  0  0
 14 16  1  0  0  0  0
 16 50  1  0  0  0  0
 17 16  1  0  0  0  0
 17 51  1  0  0  0  0
 17 18  1  0  0  0  0
 17 19  1  0  0  0  0
 18 52  1  0  0  0  0
 18 53  1  0  0  0  0
 18 54  1  0  0  0  0
 19 20  1  0  0  0  0
 19 30  2  0  0  0  0
 20 55  1  0  0  0  0
 20 21  2  0  0  0  0
 21 56  1  0  0  0  0
 21 22  1  0  0  0  0
 22 29  2  0  0  0  0
 22 23  1  0  0  0  0
 23 24  2  0  0  0  0
 23 28  1  0  0  0  0
 24 25  1  0  0  0  0
 24 26  1  0  0  0  0
 25 57  1  0  0  0  0
 25 58  1  0  0  0  0
 25 59  1  0  0  0  0
 26 27  2  0  0  0  0
 27 60  1  0  0  0  0
 27 28  1  0  0  0  0
 29 61  1  0  0  0  0
 29 30  1  0  0  0  0
 30 62  1  0  0  0  0
 32 31  1  0  0  0  0
 31 63  1  0  0  0  0
 31 64  1  0  0  0  0
 32 34  1  0  0  0  0
 32 65  1  0  0  0  0
 32 33  1  0  0  0  0
 33 66  1  0  0  0  0
 34 67  1  0  0  0  0
 34 68  1  0  0  0  0
M  ZZC   1 c1
M  ZZC   2 c2
M  ZZC   3 o1
M  ZZC   4 n1
M  ZZC   5 c3
M  ZZC   6 c4
M  ZZC   7 c5
M  ZZC   8 c6
M  ZZC   9 c7
M  ZZC  10 c8
M  ZZC  11 o2
M  ZZC  12 n2
M  ZZC  13 c9
M  ZZC  14 c10
M  ZZC  15 o3
M  ZZC  16 n3
M  ZZC  17 c11
M  ZZC  18 c12
M  ZZC  19 c13
M  ZZC  20 c14
M  ZZC  21 c15
M  ZZC  22 c16
M  ZZC  23 c17
M  ZZC  24 c18
M  ZZC  25 c19
M  ZZC  26 n4
M  ZZC  27 c20
M  ZZC  28 s1
M  ZZC  29 c21
M  ZZC  30 c22
M  ZZC  31 c23
M  ZZC  32 c24
M  ZZC  33 o4
M  ZZC  34 c25
M  ZZC  35 h11
M  ZZC  36 h12
M  ZZC  37 h13
M  ZZC  38 h01
M  ZZC  39 h31
M  ZZC  40 h51
M  ZZC  41 h52
M  ZZC  42 h53
M  ZZC  43 h61
M  ZZC  44 h62
M  ZZC  45 h63
M  ZZC  46 h71
M  ZZC  47 h72
M  ZZC  48 h73
M  ZZC  49 h91
M  ZZC  50 h02
M  ZZC  51 h111
M  ZZC  52 h121
M  ZZC  53 h122
M  ZZC  54 h123
M  ZZC  55 h141
M  ZZC  56 h151
M  ZZC  57 h191
M  ZZC  58 h192
M  ZZC  59 h193
M  ZZC  60 h201
M  ZZC  61 h211
M  ZZC  62 h221
M  ZZC  63 h231
M  ZZC  64 h232
M  ZZC  65 h241
M  ZZC  66 h41
M  ZZC  67 h251
M  ZZC  68 h252
M  ZZM   1 1
M  ZZI   1 111
M  ZZM   2 3
M  ZZI   2 121
M  ZZM   3 7
M  ZZI   3 81
M  ZZM   4 10
M  ZZI   4 211
M  ZZM   5 1
M  ZZI   5 113
M  ZZM   6 1
M  ZZI   6 110
M  ZZM   7 1
M  ZZI   7 111
M  ZZM   8 1
M  ZZI   8 111
M  ZZM   9 1
M  ZZI   9 111
M  ZZM  10 3
M  ZZI  10 121
M  ZZM  11 7
M  ZZI  11 81
M  ZZM  12 10
M  ZZI  12 192
M  ZZM  13 1
M  ZZI  13 113
M  ZZM  14 3
M  ZZI  14 121
M  ZZM  15 7
M  ZZI  15 81
M  ZZM  16 10
M  ZZI  16 211
M  ZZM  17 1
M  ZZI  17 113
M  ZZM  18 1
M  ZZI  18 111
M  ZZM  19 37
M  ZZI  19 124
M  ZZM  20 37
M  ZZI  20 125
M  ZZM  21 37
M  ZZI  21 125
M  ZZM  22 37
M  ZZI  22 124
M  ZZM  23 63
M  ZZI  23 104
M  ZZM  24 64
M  ZZI  24 105
M  ZZM  25 1
M  ZZI  25 111
M  ZZM  26 66
M  ZZI  26 222
M  ZZM  27 63
M  ZZI  27 104
M  ZZM  28 44
M  ZZI  28 248
M  ZZM  29 37
M  ZZI  29 125
M  ZZM  30 37
M  ZZI  30 125
M  ZZM  31 1
M  ZZI  31 112
M  ZZM  32 1
M  ZZI  32 113
M  ZZM  33 6
M  ZZI  33 60
M  ZZM  34 1
M  ZZI  34 112
M  ZZM  35 5
M  ZZI  35 1
M  ZZM  36 5
M  ZZI  36 1
M  ZZM  37 5
M  ZZI  37 1
M  ZZM  38 28
M  ZZI  38 11
M  ZZM  39 5
M  ZZI  39 1
M  ZZM  40 5
M  ZZI  40 1
M  ZZM  41 5
M  ZZI  41 1
M  ZZM  42 5
M  ZZI  42 1
M  ZZM  43 5
M  ZZI  43 1
M  ZZM  44 5
M  ZZI  44 1
M  ZZM  45 5
M  ZZI  45 1
M  ZZM  46 5
M  ZZI  46 1
M  ZZM  47 5
M  ZZI  47 1
M  ZZM  48 5
M  ZZI  48 1
M  ZZM  49 5
M  ZZI  49 1
M  ZZM  50 28
M  ZZI  50 11
M  ZZM  51 5
M  ZZI  51 1
M  ZZM  52 5
M  ZZI  52 1
M  ZZM  53 5
M  ZZI  53 1
M  ZZM  54 5
M  ZZI  54 1
M  ZZM  55 5
M  ZZI  55 1
M  ZZM  56 5
M  ZZI  56 1
M  ZZM  57 5
M  ZZI  57 1
M  ZZM  58 5
M  ZZI  58 1
M  ZZM  59 5
M  ZZI  59 1
M  ZZM  60 5
M  ZZI  60 1
M  ZZM  61 5
M  ZZI  61 1
M  ZZM  62 5
M  ZZI  62 1
M  ZZM  63 5
M  ZZI  63 1
M  ZZM  64 5
M  ZZI  64 1
M  ZZM  65 5
M  ZZI  65 1
M  ZZM  66 21
M  ZZI  66 20
M  ZZM  67 5
M  ZZI  67 1
M  ZZM  68 5
M  ZZI  68 1
M  END
> <IX>
1

> <NAME>
VHL_5EHR_12.pdb

> <Score>
-8.02468

> <Natom>
68

> <Nflex>
8

> <Hbond>
-4.308165

> <Hphob>
-6.607295

> <VwInt>
-28.232724

> <Dsolv>
19.14171

> <SolEl>
20.868822

> <Eintl>
4.341472

> <RecConf>
ND

> <projPath>
VHL_maps/

> <NAME_>
VHL_5EHR_12.pdb

$$$$
