VHL_5T8E_49.pdb
  MOLSOFT 04032206443D

 77 80  0  0  1  0  0  0  0  0999 V2000
   18.5438   -6.9040   -5.7842 C   0  0  0  0  0  0  0  0  0  0  0  0
   17.0639   -6.8023   -5.4615 C   0  0  0  0  0  0  0  0  0  0  0  0
   16.8077   -5.9188   -4.3434 N   0  0  0  0  0  0  0  0  0  0  0  0
   16.8219   -4.5430   -4.4805 C   0  0  0  0  0  0  0  0  0  0  0  0
   17.0032   -3.9589   -5.5374 O   0  0  0  0  0  0  0  0  0  0  0  0
   16.6206   -3.7995   -3.1828 C   0  0  0  0  0  0  0  0  0  0  0  0
   15.3482   -2.9363   -3.1881 C   0  0  2  0  0  0  0  0  0  0  0  0
   15.4511   -1.8283   -4.1361 N   0  0  0  0  0  0  0  0  0  0  0  0
   14.5338   -1.6323   -5.1538 C   0  0  0  0  0  0  0  0  0  0  0  0
   13.5928   -2.3821   -5.3649 O   0  0  0  0  0  0  0  0  0  0  0  0
   14.7079   -0.3675   -6.0006 C   0  0  1  0  0  0  0  0  0  0  0  0
   15.9691    0.3477   -5.8555 N   0  0  0  0  0  0  0  0  0  0  0  0
   16.1206    1.4064   -4.9627 C   0  0  0  0  0  0  0  0  0  0  0  0
   15.3136    1.6187   -4.0677 O   0  0  0  0  0  0  0  0  0  0  0  0
   17.3046    2.3421   -5.2239 C   0  0  2  0  0  0  0  0  0  0  0  0
   17.8371    2.9977   -3.9284 C   0  0  0  0  0  0  0  0  0  0  0  0
   18.9667    3.9885   -4.2236 C   0  0  0  0  0  0  0  0  0  0  0  0
   18.3637    1.9353   -2.9580 C   0  0  0  0  0  0  0  0  0  0  0  0
   16.8075    3.3386   -6.2296 C   0  0  0  0  0  0  0  0  0  0  0  0
   17.5404    3.4660   -7.3721 O   0  0  0  0  0  0  0  0  0  0  0  0
   16.8719    4.3125   -8.2638 N   0  0  0  0  0  0  0  0  0  0  0  0
   15.7787    4.7280   -7.6105 C   0  0  0  0  0  0  0  0  0  0  0  0
   14.8143    5.6448   -8.2602 C   0  0  0  0  0  0  0  0  0  0  0  0
   15.7003    4.1516   -6.3208 C   0  0  0  0  0  0  0  0  0  0  0  0
   16.8932   -0.0329   -6.9079 C   0  0  0  0  0  0  0  0  0  0  0  0
   16.1538   -1.0720   -7.7356 C   0  0  2  0  0  0  0  0  0  0  0  0
   16.4656   -0.9884   -9.1274 O   0  0  0  0  0  0  0  0  0  0  0  0
   14.7037   -0.7347   -7.4752 C   0  0  0  0  0  0  0  0  0  0  0  0
   14.9920   -2.3820   -1.8178 C   0  0  0  0  0  0  0  0  0  0  0  0
   15.8522   -2.4306   -0.7186 C   0  0  0  0  0  0  0  0  0  0  0  0
   15.4856   -1.8958    0.5031 C   0  0  0  0  0  0  0  0  0  0  0  0
   14.2556   -1.2753    0.6715 C   0  0  0  0  0  0  0  0  0  0  0  0
   13.8898   -0.7054    1.9594 C   0  0  0  0  0  0  0  0  0  0  0  0
   13.7960   -1.2975    3.2125 C   0  0  0  0  0  0  0  0  0  0  0  0
   14.0345   -2.7208    3.5472 C   0  0  0  0  0  0  0  0  0  0  0  0
   13.4386   -0.4433    4.2366 N   0  0  0  0  0  0  0  0  0  0  0  0
   13.2572    0.7678    3.7586 C   0  0  0  0  0  0  0  0  0  0  0  0
   13.5227    0.9714    2.0832 S   0  0  0  0  0  0  0  0  0  0  0  0
   13.3921   -1.2195   -0.4150 C   0  0  0  0  0  0  0  0  0  0  0  0
   13.7553   -1.7683   -1.6320 C   0  0  0  0  0  0  0  0  0  0  0  0
   18.9838   -5.9222   -5.9835 H   0  0  0  0  0  0  0  0  0  0  0  0
   18.6968   -7.5275   -6.6663 H   0  0  0  0  0  0  0  0  0  0  0  0
   19.0929   -7.3553   -4.9559 H   0  0  0  0  0  0  0  0  0  0  0  0
   16.5144   -6.4315   -6.3286 H   0  0  0  0  0  0  0  0  0  0  0  0
   16.6697   -7.7899   -5.2088 H   0  0  0  0  0  0  0  0  0  0  0  0
   16.5939   -6.3494   -3.4500 H   0  0  0  0  0  0  0  0  0  0  0  0
   16.5788   -4.5323   -2.3694 H   0  0  0  0  0  0  0  0  0  0  0  0
   17.5173   -3.1898   -3.0223 H   0  0  0  0  0  0  0  0  0  0  0  0
   14.5190   -3.5821   -3.5001 H   0  0  0  0  0  0  0  0  0  0  0  0
   16.1806   -1.1369   -4.0020 H   0  0  0  0  0  0  0  0  0  0  0  0
   13.8736    0.2991   -5.7532 H   0  0  0  0  0  0  0  0  0  0  0  0
   18.1274    1.7662   -5.6610 H   0  0  0  0  0  0  0  0  0  0  0  0
   17.0304    3.5453   -3.4272 H   0  0  0  0  0  0  0  0  0  0  0  0
   19.3744    4.4051   -3.2976 H   0  0  0  0  0  0  0  0  0  0  0  0
   18.6178    4.8308   -4.8277 H   0  0  0  0  0  0  0  0  0  0  0  0
   19.7900    3.5071   -4.7616 H   0  0  0  0  0  0  0  0  0  0  0  0
   17.5791    1.2388   -2.6502 H   0  0  0  0  0  0  0  0  0  0  0  0
   18.7600    2.3968   -2.0485 H   0  0  0  0  0  0  0  0  0  0  0  0
   19.1701    1.3477   -3.4086 H   0  0  0  0  0  0  0  0  0  0  0  0
   15.1221    5.8957   -9.2801 H   0  0  0  0  0  0  0  0  0  0  0  0
   14.7277    6.5774   -7.6953 H   0  0  0  0  0  0  0  0  0  0  0  0
   13.8232    5.1841   -8.3157 H   0  0  0  0  0  0  0  0  0  0  0  0
   14.9185    4.2733   -5.5839 H   0  0  0  0  0  0  0  0  0  0  0  0
   17.1687    0.8358   -7.5118 H   0  0  0  0  0  0  0  0  0  0  0  0
   17.7998   -0.4386   -6.4493 H   0  0  0  0  0  0  0  0  0  0  0  0
   16.3694   -2.0826   -7.3780 H   0  0  0  0  0  0  0  0  0  0  0  0
   17.4271   -0.8276   -9.1695 H   0  0  0  0  0  0  0  0  0  0  0  0
   14.0496   -1.5703   -7.7259 H   0  0  0  0  0  0  0  0  0  0  0  0
   14.3973    0.1209   -8.0889 H   0  0  0  0  0  0  0  0  0  0  0  0
   16.8373   -2.8789   -0.7899 H   0  0  0  0  0  0  0  0  0  0  0  0
   16.1880   -1.9521    1.3295 H   0  0  0  0  0  0  0  0  0  0  0  0
   13.6120   -2.9695    4.5252 H   0  0  0  0  0  0  0  0  0  0  0  0
   15.1061   -2.9367    3.5775 H   0  0  0  0  0  0  0  0  0  0  0  0
   13.5694   -3.3820    2.8111 H   0  0  0  0  0  0  0  0  0  0  0  0
   12.9580    1.5961    4.3844 H   0  0  0  0  0  0  0  0  0  0  0  0
   12.4155   -0.7543   -0.3205 H   0  0  0  0  0  0  0  0  0  0  0  0
   13.0551   -1.7056   -2.4579 H   0  0  0  0  0  0  0  0  0  0  0  0
  1 41  1  0  0  0  0
  1 42  1  0  0  0  0
  1 43  1  0  0  0  0
  1  2  1  0  0  0  0
  2 44  1  0  0  0  0
  2 45  1  0  0  0  0
  2  3  1  0  0  0  0
  3 46  1  0  0  0  0
  3  4  1  0  0  0  0
  4  5  2  0  0  0  0
  4  6  1  0  0  0  0
  6 47  1  0  0  0  0
  6 48  1  0  0  0  0
  7  6  1  0  0  0  0
  7 49  1  0  0  0  0
  7 29  1  0  0  0  0
  7  8  1  0  0  0  0
  8 50  1  0  0  0  0
  8  9  1  0  0  0  0
  9 10  2  0  0  0  0
 11  9  1  0  0  0  0
 11 51  1  0  0  0  0
 11 28  1  0  0  0  0
 11 12  1  0  0  0  0
 12 25  1  0  0  0  0
 12 13  1  0  0  0  0
 13 14  2  0  0  0  0
 15 13  1  0  0  0  0
 15 52  1  0  0  0  0
 15 16  1  0  0  0  0
 15 19  1  0  0  0  0
 16 53  1  0  0  0  0
 16 18  1  0  0  0  0
 16 17  1  0  0  0  0
 17 54  1  0  0  0  0
 17 55  1  0  0  0  0
 17 56  1  0  0  0  0
 18 57  1  0  0  0  0
 18 58  1  0  0  0  0
 18 59  1  0  0  0  0
 19 24  2  0  0  0  0
 19 20  1  0  0  0  0
 20 21  1  0  0  0  0
 21 22  2  0  0  0  0
 22 24  1  0  0  0  0
 22 23  1  0  0  0  0
 23 60  1  0  0  0  0
 23 61  1  0  0  0  0
 23 62  1  0  0  0  0
 24 63  1  0  0  0  0
 26 25  1  0  0  0  0
 25 64  1  0  0  0  0
 25 65  1  0  0  0  0
 26 28  1  0  0  0  0
 26 66  1  0  0  0  0
 26 27  1  0  0  0  0
 27 67  1  0  0  0  0
 28 68  1  0  0  0  0
 28 69  1  0  0  0  0
 29 30  1  0  0  0  0
 29 40  2  0  0  0  0
 30 70  1  0  0  0  0
 30 31  2  0  0  0  0
 31 71  1  0  0  0  0
 31 32  1  0  0  0  0
 32 39  2  0  0  0  0
 32 33  1  0  0  0  0
 33 34  2  0  0  0  0
 33 38  1  0  0  0  0
 34 35  1  0  0  0  0
 34 36  1  0  0  0  0
 35 72  1  0  0  0  0
 35 73  1  0  0  0  0
 35 74  1  0  0  0  0
 36 37  2  0  0  0  0
 37 75  1  0  0  0  0
 37 38  1  0  0  0  0
 39 76  1  0  0  0  0
 39 40  1  0  0  0  0
 40 77  1  0  0  0  0
M  ZZC   1 c1
M  ZZC   2 c2
M  ZZC   3 n1
M  ZZC   4 c3
M  ZZC   5 o1
M  ZZC   6 c4
M  ZZC   7 c5
M  ZZC   8 n2
M  ZZC   9 c6
M  ZZC  10 o2
M  ZZC  11 c7
M  ZZC  12 n3
M  ZZC  13 c8
M  ZZC  14 o3
M  ZZC  15 c9
M  ZZC  16 c10
M  ZZC  17 c11
M  ZZC  18 c12
M  ZZC  19 c13
M  ZZC  20 o4
M  ZZC  21 n4
M  ZZC  22 c14
M  ZZC  23 c15
M  ZZC  24 c16
M  ZZC  25 c17
M  ZZC  26 c18
M  ZZC  27 o5
M  ZZC  28 c19
M  ZZC  29 c20
M  ZZC  30 c21
M  ZZC  31 c22
M  ZZC  32 c23
M  ZZC  33 c24
M  ZZC  34 c25
M  ZZC  35 c26
M  ZZC  36 n5
M  ZZC  37 c27
M  ZZC  38 s1
M  ZZC  39 c28
M  ZZC  40 c29
M  ZZC  41 h11
M  ZZC  42 h12
M  ZZC  43 h13
M  ZZC  44 h21
M  ZZC  45 h22
M  ZZC  46 h01
M  ZZC  47 h41
M  ZZC  48 h42
M  ZZC  49 h51
M  ZZC  50 h02
M  ZZC  51 h71
M  ZZC  52 h91
M  ZZC  53 h101
M  ZZC  54 h111
M  ZZC  55 h112
M  ZZC  56 h113
M  ZZC  57 h121
M  ZZC  58 h122
M  ZZC  59 h123
M  ZZC  60 h151
M  ZZC  61 h152
M  ZZC  62 h153
M  ZZC  63 h161
M  ZZC  64 h171
M  ZZC  65 h172
M  ZZC  66 h181
M  ZZC  67 h03
M  ZZC  68 h191
M  ZZC  69 h192
M  ZZC  70 h211
M  ZZC  71 h221
M  ZZC  72 h261
M  ZZC  73 h262
M  ZZC  74 h263
M  ZZC  75 h271
M  ZZC  76 h281
M  ZZC  77 h291
M  ZZM   1 1
M  ZZI   1 111
M  ZZM   2 1
M  ZZI   2 112
M  ZZM   3 10
M  ZZI   3 211
M  ZZM   4 3
M  ZZI   4 121
M  ZZM   5 7
M  ZZI   5 81
M  ZZM   6 1
M  ZZI   6 112
M  ZZM   7 1
M  ZZI   7 113
M  ZZM   8 10
M  ZZI   8 211
M  ZZM   9 3
M  ZZI   9 121
M  ZZM  10 7
M  ZZI  10 81
M  ZZM  11 1
M  ZZI  11 113
M  ZZM  12 10
M  ZZI  12 192
M  ZZM  13 3
M  ZZI  13 121
M  ZZM  14 7
M  ZZI  14 81
M  ZZM  15 1
M  ZZI  15 113
M  ZZM  16 1
M  ZZI  16 113
M  ZZM  17 1
M  ZZI  17 111
M  ZZM  18 1
M  ZZI  18 111
M  ZZM  19 63
M  ZZI  19 104
M  ZZM  20 59
M  ZZI  20 56
M  ZZM  21 65
M  ZZI  21 207
M  ZZM  22 64
M  ZZI  22 105
M  ZZM  23 1
M  ZZI  23 111
M  ZZM  24 64
M  ZZI  24 105
M  ZZM  25 1
M  ZZI  25 112
M  ZZM  26 1
M  ZZI  26 113
M  ZZM  27 6
M  ZZI  27 60
M  ZZM  28 1
M  ZZI  28 112
M  ZZM  29 37
M  ZZI  29 124
M  ZZM  30 37
M  ZZI  30 125
M  ZZM  31 37
M  ZZI  31 125
M  ZZM  32 37
M  ZZI  32 124
M  ZZM  33 63
M  ZZI  33 104
M  ZZM  34 64
M  ZZI  34 105
M  ZZM  35 1
M  ZZI  35 111
M  ZZM  36 66
M  ZZI  36 222
M  ZZM  37 63
M  ZZI  37 104
M  ZZM  38 44
M  ZZI  38 248
M  ZZM  39 37
M  ZZI  39 125
M  ZZM  40 37
M  ZZI  40 125
M  ZZM  41 5
M  ZZI  41 1
M  ZZM  42 5
M  ZZI  42 1
M  ZZM  43 5
M  ZZI  43 1
M  ZZM  44 5
M  ZZI  44 1
M  ZZM  45 5
M  ZZI  45 1
M  ZZM  46 28
M  ZZI  46 11
M  ZZM  47 5
M  ZZI  47 1
M  ZZM  48 5
M  ZZI  48 1
M  ZZM  49 5
M  ZZI  49 1
M  ZZM  50 28
M  ZZI  50 11
M  ZZM  51 5
M  ZZI  51 1
M  ZZM  52 5
M  ZZI  52 1
M  ZZM  53 5
M  ZZI  53 1
M  ZZM  54 5
M  ZZI  54 1
M  ZZM  55 5
M  ZZI  55 1
M  ZZM  56 5
M  ZZI  56 1
M  ZZM  57 5
M  ZZI  57 1
M  ZZM  58 5
M  ZZI  58 1
M  ZZM  59 5
M  ZZI  59 1
M  ZZM  60 5
M  ZZI  60 1
M  ZZM  61 5
M  ZZI  61 1
M  ZZM  62 5
M  ZZI  62 1
M  ZZM  63 5
M  ZZI  63 1
M  ZZM  64 5
M  ZZI  64 1
M  ZZM  65 5
M  ZZI  65 1
M  ZZM  66 5
M  ZZI  66 1
M  ZZM  67 21
M  ZZI  67 20
M  ZZM  68 5
M  ZZI  68 1
M  ZZM  69 5
M  ZZI  69 1
M  ZZM  70 5
M  ZZI  70 1
M  ZZM  71 5
M  ZZI  71 1
M  ZZM  72 5
M  ZZI  72 1
M  ZZM  73 5
M  ZZI  73 1
M  ZZM  74 5
M  ZZI  74 1
M  ZZM  75 5
M  ZZI  75 1
M  ZZM  76 5
M  ZZI  76 1
M  ZZM  77 5
M  ZZI  77 1
M  END
> <IX>
1

> <NAME>
VHL_5T8E_49.pdb

> <Score>
-17.777502

> <Natom>
77

> <Nflex>
11

> <Hbond>
-7.663153

> <Hphob>
-6.586423

> <VwInt>
-35.121718

> <Dsolv>
23.192821

> <SolEl>
17.360435

> <Eintl>
9.487323

> <RecConf>
ND

> <projPath>
VHL_maps/

> <NAME_>
VHL_5T8E_49.pdb

$$$$
