VHL_5LLI_6.pdb
  MOLSOFT 04032206433D

 71 74  0  0  1  0  0  0  0  0999 V2000
    3.1920   -3.6774   -3.5721 O   0  0  0  0  0  0  0  0  0  0  0  0
    2.7726   -3.2266   -2.3346 C   0  0  0  0  0  0  0  0  0  0  0  0
    1.4409   -3.3274   -1.9145 C   0  0  0  0  0  0  0  0  0  0  0  0
    0.3269   -3.9447   -2.7258 C   0  0  0  0  0  0  0  0  0  0  0  0
    0.7730   -4.9366   -3.6835 N   0  0  0  0  0  0  0  0  0  0  0  0
    0.2601   -4.9910   -4.9679 C   0  0  0  0  0  0  0  0  0  0  0  0
   -0.6188   -4.2470   -5.3807 O   0  0  0  0  0  0  0  0  0  0  0  0
    0.9010   -6.0848   -5.8211 C   0  0  2  0  0  0  0  0  0  0  0  0
    0.9261   -5.7182   -7.2290 N   0  0  0  0  0  0  0  0  0  0  0  0
    1.7950   -4.7313   -7.6986 C   0  0  0  0  0  0  0  0  0  0  0  0
    2.4890   -4.0947   -6.9170 O   0  0  0  0  0  0  0  0  0  0  0  0
    1.8234   -4.4812   -9.2204 C   0  0  2  0  0  0  0  0  0  0  0  0
    2.5108   -5.6064   -9.8759 N   0  0  0  0  0  0  0  0  0  0  0  0
    1.8868   -6.3819  -10.8383 C   0  0  0  0  0  0  0  0  0  0  0  0
    0.7184   -6.2665  -11.1782 O   0  0  0  0  0  0  0  0  0  0  0  0
    2.7513   -7.4001  -11.4802 C   0  0  0  0  0  0  0  0  0  0  0  0
    3.1132   -8.5205  -10.6708 C   0  0  0  0  0  0  0  0  0  0  0  0
    3.4579   -9.4209  -10.0271 N   0  0  0  0  0  0  0  0  0  0  0  0
    3.7660   -6.9226  -12.4899 C   0  0  0  0  0  0  0  0  0  0  0  0
    2.5748   -7.6878  -12.9612 C   0  0  0  0  0  0  0  0  0  0  0  0
    2.4135   -3.1071   -9.6684 C   0  0  0  0  0  0  0  0  0  0  0  0
    3.8886   -2.9189   -9.2662 C   0  0  0  0  0  0  0  0  0  0  0  0
    1.5873   -1.9471   -9.0858 C   0  0  0  0  0  0  0  0  0  0  0  0
    2.3200   -3.0011  -11.1997 C   0  0  0  0  0  0  0  0  0  0  0  0
    0.0118   -6.5467   -7.9949 C   0  0  0  0  0  0  0  0  0  0  0  0
   -0.8453   -7.2496   -6.9564 C   0  0  1  0  0  0  0  0  0  0  0  0
   -1.2646   -8.5352   -7.4102 O   0  0  0  0  0  0  0  0  0  0  0  0
    0.0925   -7.3697   -5.7716 C   0  0  0  0  0  0  0  0  0  0  0  0
    1.1214   -2.7601   -0.6837 C   0  0  0  0  0  0  0  0  0  0  0  0
    2.0829   -2.1437    0.0984 C   0  0  0  0  0  0  0  0  0  0  0  0
    3.4062   -2.0801   -0.3187 C   0  0  0  0  0  0  0  0  0  0  0  0
    4.4221   -1.4479    0.5076 C   0  0  0  0  0  0  0  0  0  0  0  0
    5.5389   -1.9943    1.1185 C   0  0  0  0  0  0  0  0  0  0  0  0
    5.9263   -3.4199    1.1233 C   0  0  0  0  0  0  0  0  0  0  0  0
    6.3463   -1.0915    1.7779 N   0  0  0  0  0  0  0  0  0  0  0  0
    5.7990    0.1019    1.7340 C   0  0  0  0  0  0  0  0  0  0  0  0
    4.3405    0.2321    0.8609 S   0  0  0  0  0  0  0  0  0  0  0  0
    3.7434   -2.6430   -1.5432 C   0  0  0  0  0  0  0  0  0  0  0  0
    2.3976   -3.8035   -4.1224 H   0  0  0  0  0  0  0  0  0  0  0  0
   -0.3710   -4.4653   -2.0616 H   0  0  0  0  0  0  0  0  0  0  0  0
   -0.2272   -3.1533   -3.2400 H   0  0  0  0  0  0  0  0  0  0  0  0
    1.4090   -5.6575   -3.3555 H   0  0  0  0  0  0  0  0  0  0  0  0
    1.9238   -6.2484   -5.4696 H   0  0  0  0  0  0  0  0  0  0  0  0
    0.7805   -4.4906   -9.5506 H   0  0  0  0  0  0  0  0  0  0  0  0
    3.4835   -5.7973   -9.6440 H   0  0  0  0  0  0  0  0  0  0  0  0
    3.7988   -5.8726  -12.7440 H   0  0  0  0  0  0  0  0  0  0  0  0
    4.7313   -7.4108  -12.4930 H   0  0  0  0  0  0  0  0  0  0  0  0
    2.7401   -8.6944  -13.3288 H   0  0  0  0  0  0  0  0  0  0  0  0
    1.8155   -7.1456  -13.5127 H   0  0  0  0  0  0  0  0  0  0  0  0
    4.0208   -2.8040   -8.1880 H   0  0  0  0  0  0  0  0  0  0  0  0
    4.3075   -2.0151   -9.7201 H   0  0  0  0  0  0  0  0  0  0  0  0
    4.5102   -3.7599   -9.5851 H   0  0  0  0  0  0  0  0  0  0  0  0
    1.9731   -0.9761   -9.4124 H   0  0  0  0  0  0  0  0  0  0  0  0
    1.6078   -1.9542   -7.9912 H   0  0  0  0  0  0  0  0  0  0  0  0
    0.5374   -1.9937   -9.3815 H   0  0  0  0  0  0  0  0  0  0  0  0
    2.9252   -3.7575  -11.7053 H   0  0  0  0  0  0  0  0  0  0  0  0
    2.6745   -2.0306  -11.5545 H   0  0  0  0  0  0  0  0  0  0  0  0
    1.2891   -3.1183  -11.5487 H   0  0  0  0  0  0  0  0  0  0  0  0
   -0.5884   -5.9454   -8.6836 H   0  0  0  0  0  0  0  0  0  0  0  0
    0.5938   -7.2678   -8.5774 H   0  0  0  0  0  0  0  0  0  0  0  0
   -1.7270   -6.6492   -6.7047 H   0  0  0  0  0  0  0  0  0  0  0  0
   -1.7016   -8.9836   -6.6652 H   0  0  0  0  0  0  0  0  0  0  0  0
    0.7499   -8.2330   -5.9176 H   0  0  0  0  0  0  0  0  0  0  0  0
   -0.4483   -7.5193   -4.8312 H   0  0  0  0  0  0  0  0  0  0  0  0
    0.0982   -2.7888   -0.3195 H   0  0  0  0  0  0  0  0  0  0  0  0
    1.7877   -1.7169    1.0526 H   0  0  0  0  0  0  0  0  0  0  0  0
    6.6776   -3.6236    1.8904 H   0  0  0  0  0  0  0  0  0  0  0  0
    6.3369   -3.7046    0.1510 H   0  0  0  0  0  0  0  0  0  0  0  0
    5.0650   -4.0574    1.3404 H   0  0  0  0  0  0  0  0  0  0  0  0
    6.2417    0.9591    2.2194 H   0  0  0  0  0  0  0  0  0  0  0  0
    4.7653   -2.6021   -1.9073 H   0  0  0  0  0  0  0  0  0  0  0  0
  1 39  1  0  0  0  0
  1  2  1  0  0  0  0
  2  3  1  0  0  0  0
  2 38  2  0  0  0  0
  3 29  2  0  0  0  0
  3  4  1  0  0  0  0
  4 40  1  0  0  0  0
  4 41  1  0  0  0  0
  4  5  1  0  0  0  0
  5 42  1  0  0  0  0
  5  6  1  0  0  0  0
  6  7  2  0  0  0  0
  8  6  1  0  0  0  0
  8 43  1  0  0  0  0
  8 28  1  0  0  0  0
  8  9  1  0  0  0  0
  9 25  1  0  0  0  0
  9 10  1  0  0  0  0
 10 11  2  0  0  0  0
 12 10  1  0  0  0  0
 12 44  1  0  0  0  0
 12 21  1  0  0  0  0
 12 13  1  0  0  0  0
 13 45  1  0  0  0  0
 13 14  1  0  0  0  0
 14 15  2  0  0  0  0
 14 16  1  0  0  0  0
 16 17  1  0  0  0  0
 16 19  1  0  0  0  0
 16 20  1  0  0  0  0
 17 18  3  0  0  0  0
 19 46  1  0  0  0  0
 19 47  1  0  0  0  0
 19 20  1  0  0  0  0
 20 48  1  0  0  0  0
 20 49  1  0  0  0  0
 21 22  1  0  0  0  0
 21 23  1  0  0  0  0
 21 24  1  0  0  0  0
 22 50  1  0  0  0  0
 22 51  1  0  0  0  0
 22 52  1  0  0  0  0
 23 53  1  0  0  0  0
 23 54  1  0  0  0  0
 23 55  1  0  0  0  0
 24 56  1  0  0  0  0
 24 57  1  0  0  0  0
 24 58  1  0  0  0  0
 26 25  1  0  0  0  0
 25 59  1  0  0  0  0
 25 60  1  0  0  0  0
 26 28  1  0  0  0  0
 26 61  1  0  0  0  0
 26 27  1  0  0  0  0
 27 62  1  0  0  0  0
 28 63  1  0  0  0  0
 28 64  1  0  0  0  0
 29 65  1  0  0  0  0
 29 30  1  0  0  0  0
 30 66  1  0  0  0  0
 30 31  2  0  0  0  0
 31 38  1  0  0  0  0
 31 32  1  0  0  0  0
 32 33  2  0  0  0  0
 32 37  1  0  0  0  0
 33 34  1  0  0  0  0
 33 35  1  0  0  0  0
 34 67  1  0  0  0  0
 34 68  1  0  0  0  0
 34 69  1  0  0  0  0
 35 36  2  0  0  0  0
 36 70  1  0  0  0  0
 36 37  1  0  0  0  0
 38 71  1  0  0  0  0
M  ZZC   1 o1
M  ZZC   2 c1
M  ZZC   3 c2
M  ZZC   4 c3
M  ZZC   5 n1
M  ZZC   6 c4
M  ZZC   7 o2
M  ZZC   8 c5
M  ZZC   9 n2
M  ZZC  10 c6
M  ZZC  11 o3
M  ZZC  12 c7
M  ZZC  13 n3
M  ZZC  14 c8
M  ZZC  15 o4
M  ZZC  16 c9
M  ZZC  17 c10
M  ZZC  18 n4
M  ZZC  19 c11
M  ZZC  20 c12
M  ZZC  21 c13
M  ZZC  22 c14
M  ZZC  23 c15
M  ZZC  24 c16
M  ZZC  25 c17
M  ZZC  26 c18
M  ZZC  27 o5
M  ZZC  28 c19
M  ZZC  29 c20
M  ZZC  30 c21
M  ZZC  31 c22
M  ZZC  32 c23
M  ZZC  33 c24
M  ZZC  34 c25
M  ZZC  35 n5
M  ZZC  36 c26
M  ZZC  37 s1
M  ZZC  38 c27
M  ZZC  39 h11
M  ZZC  40 h31
M  ZZC  41 h32
M  ZZC  42 h01
M  ZZC  43 h51
M  ZZC  44 h71
M  ZZC  45 h02
M  ZZC  46 h111
M  ZZC  47 h112
M  ZZC  48 h121
M  ZZC  49 h122
M  ZZC  50 h141
M  ZZC  51 h142
M  ZZC  52 h143
M  ZZC  53 h151
M  ZZC  54 h152
M  ZZC  55 h153
M  ZZC  56 h161
M  ZZC  57 h162
M  ZZC  58 h163
M  ZZC  59 h171
M  ZZC  60 h172
M  ZZC  61 h181
M  ZZC  62 h03
M  ZZC  63 h191
M  ZZC  64 h192
M  ZZC  65 h201
M  ZZC  66 h211
M  ZZC  67 h251
M  ZZC  68 h252
M  ZZC  69 h253
M  ZZC  70 h261
M  ZZC  71 h271
M  ZZM   1 6
M  ZZI   1 62
M  ZZM   2 37
M  ZZI   2 124
M  ZZM   3 37
M  ZZI   3 124
M  ZZM   4 1
M  ZZI   4 112
M  ZZM   5 10
M  ZZI   5 211
M  ZZM   6 3
M  ZZI   6 121
M  ZZM   7 7
M  ZZI   7 81
M  ZZM   8 1
M  ZZI   8 113
M  ZZM   9 10
M  ZZI   9 192
M  ZZM  10 3
M  ZZI  10 121
M  ZZM  11 7
M  ZZI  11 81
M  ZZM  12 1
M  ZZI  12 113
M  ZZM  13 10
M  ZZI  13 211
M  ZZM  14 3
M  ZZI  14 121
M  ZZM  15 7
M  ZZI  15 81
M  ZZM  16 22
M  ZZI  16 109
M  ZZM  17 4
M  ZZI  17 130
M  ZZM  18 42
M  ZZI  18 225
M  ZZM  19 22
M  ZZI  19 109
M  ZZM  20 22
M  ZZI  20 109
M  ZZM  21 1
M  ZZI  21 110
M  ZZM  22 1
M  ZZI  22 111
M  ZZM  23 1
M  ZZI  23 111
M  ZZM  24 1
M  ZZI  24 111
M  ZZM  25 1
M  ZZI  25 112
M  ZZM  26 1
M  ZZI  26 113
M  ZZM  27 6
M  ZZI  27 60
M  ZZM  28 1
M  ZZI  28 112
M  ZZM  29 37
M  ZZI  29 125
M  ZZM  30 37
M  ZZI  30 125
M  ZZM  31 37
M  ZZI  31 124
M  ZZM  32 63
M  ZZI  32 104
M  ZZM  33 64
M  ZZI  33 105
M  ZZM  34 1
M  ZZI  34 111
M  ZZM  35 66
M  ZZI  35 222
M  ZZM  36 63
M  ZZI  36 104
M  ZZM  37 44
M  ZZI  37 248
M  ZZM  38 37
M  ZZI  38 125
M  ZZM  39 29
M  ZZI  39 27
M  ZZM  40 5
M  ZZI  40 1
M  ZZM  41 5
M  ZZI  41 1
M  ZZM  42 28
M  ZZI  42 11
M  ZZM  43 5
M  ZZI  43 1
M  ZZM  44 5
M  ZZI  44 1
M  ZZM  45 28
M  ZZI  45 11
M  ZZM  46 5
M  ZZI  46 1
M  ZZM  47 5
M  ZZI  47 1
M  ZZM  48 5
M  ZZI  48 1
M  ZZM  49 5
M  ZZI  49 1
M  ZZM  50 5
M  ZZI  50 1
M  ZZM  51 5
M  ZZI  51 1
M  ZZM  52 5
M  ZZI  52 1
M  ZZM  53 5
M  ZZI  53 1
M  ZZM  54 5
M  ZZI  54 1
M  ZZM  55 5
M  ZZI  55 1
M  ZZM  56 5
M  ZZI  56 1
M  ZZM  57 5
M  ZZI  57 1
M  ZZM  58 5
M  ZZI  58 1
M  ZZM  59 5
M  ZZI  59 1
M  ZZM  60 5
M  ZZI  60 1
M  ZZM  61 5
M  ZZI  61 1
M  ZZM  62 21
M  ZZI  62 20
M  ZZM  63 5
M  ZZI  63 1
M  ZZM  64 5
M  ZZI  64 1
M  ZZM  65 5
M  ZZI  65 1
M  ZZM  66 5
M  ZZI  66 1
M  ZZM  67 5
M  ZZI  67 1
M  ZZM  68 5
M  ZZI  68 1
M  ZZM  69 5
M  ZZI  69 1
M  ZZM  70 5
M  ZZI  70 1
M  ZZM  71 5
M  ZZI  71 1
M  END
> <IX>
1

> <NAME>
VHL_5LLI_6.pdb

> <Score>
-23.525849

> <Natom>
71

> <Nflex>
9

> <Hbond>
-9.087039

> <Hphob>
-6.217785

> <VwInt>
-27.765183

> <Dsolv>
13.917691

> <SolEl>
15.704184

> <Eintl>
8.654048

> <RecConf>
ND

> <projPath>
VHL_maps/

> <NAME_>
VHL_5LLI_6.pdb

$$$$
