VHL_3MXF_7.pdb
  MOLSOFT 04032206383D

 66 68  0  0  1  0  0  0  0  0999 V2000
   15.9387   -2.4455    0.6729 C   0  0  0  0  0  0  0  0  0  0  0  0
   16.1053   -3.3662   -0.8841 S   0  0  0  0  0  0  0  0  0  0  0  0
   16.5251   -2.0342   -2.1158 C   0  0  0  0  0  0  0  0  0  0  0  0
   16.3088   -2.6377   -3.5390 C   0  0  2  0  0  0  0  0  0  0  0  0
   17.0735   -3.8597   -3.8255 N   0  0  0  0  0  0  0  0  0  0  0  0
   16.4552   -5.0860   -3.9459 C   0  0  0  0  0  0  0  0  0  0  0  0
   15.2823   -5.2834   -3.6739 O   0  0  0  0  0  0  0  0  0  0  0  0
   17.3494   -6.1857   -4.4547 C   0  0  0  0  0  0  0  0  0  0  0  0
   16.6950   -1.6836   -4.6837 C   0  0  0  0  0  0  0  0  0  0  0  0
   17.8708   -1.4448   -4.9326 O   0  0  0  0  0  0  0  0  0  0  0  0
   15.6553   -1.1462   -5.4411 N   0  0  0  0  0  0  0  0  0  0  0  0
   15.9216   -0.3669   -6.6414 C   0  0  2  0  0  0  0  0  0  0  0  0
   16.2672    1.0806   -6.2797 C   0  0  0  0  0  0  0  0  0  0  0  0
   15.5728    1.7627   -5.5378 O   0  0  0  0  0  0  0  0  0  0  0  0
   17.4283    1.5420   -6.8702 N   0  0  0  0  0  0  0  0  0  0  0  0
   17.9235    2.8793   -6.5904 C   0  0  0  0  0  0  0  0  0  0  0  0
   19.2891    3.1759   -7.1635 C   0  0  0  0  0  0  0  0  0  0  0  0
   19.6111    4.4625   -7.5831 C   0  0  0  0  0  0  0  0  0  0  0  0
   20.8710    4.7633   -8.0783 C   0  0  0  0  0  0  0  0  0  0  0  0
   21.8633    3.7907   -8.1686 C   0  0  0  0  0  0  0  0  0  0  0  0
   23.1800    4.0880   -8.7403 C   0  0  0  0  0  0  0  0  0  0  0  0
   23.5542    4.8696   -9.8310 C   0  0  0  0  0  0  0  0  0  0  0  0
   22.6758    5.6385  -10.7453 C   0  0  0  0  0  0  0  0  0  0  0  0
   24.9105    4.9114  -10.0891 N   0  0  0  0  0  0  0  0  0  0  0  0
   25.5554    4.1759   -9.2146 C   0  0  0  0  0  0  0  0  0  0  0  0
   24.5993    3.4108   -8.0319 S   0  0  0  0  0  0  0  0  0  0  0  0
   21.5441    2.5140   -7.7142 C   0  0  0  0  0  0  0  0  0  0  0  0
   20.2876    2.2123   -7.2233 C   0  0  0  0  0  0  0  0  0  0  0  0
   14.6229   -0.4475   -7.4271 C   0  0  0  0  0  0  0  0  0  0  0  0
   13.5454   -0.5802   -6.3604 C   0  0  1  0  0  0  0  0  0  0  0  0
   12.4128   -1.2972   -6.8504 O   0  0  0  0  0  0  0  0  0  0  0  0
   14.2321   -1.3754   -5.2633 C   0  0  0  0  0  0  0  0  0  0  0  0
   17.9769   -1.5918   -1.8773 C   0  0  0  0  0  0  0  0  0  0  0  0
   15.5897   -0.8298   -1.9136 C   0  0  0  0  0  0  0  0  0  0  0  0
   16.8236   -1.8407    0.8811 H   0  0  0  0  0  0  0  0  0  0  0  0
   15.8219   -3.1624    1.4895 H   0  0  0  0  0  0  0  0  0  0  0  0
   15.0456   -1.8161    0.6584 H   0  0  0  0  0  0  0  0  0  0  0  0
   15.2522   -2.8990   -3.6342 H   0  0  0  0  0  0  0  0  0  0  0  0
   18.0597   -3.7782   -4.0535 H   0  0  0  0  0  0  0  0  0  0  0  0
   16.8475   -6.7000   -5.2800 H   0  0  0  0  0  0  0  0  0  0  0  0
   17.5419   -6.8987   -3.6498 H   0  0  0  0  0  0  0  0  0  0  0  0
   18.3018   -5.7946   -4.8239 H   0  0  0  0  0  0  0  0  0  0  0  0
   16.7492   -0.8181   -7.2010 H   0  0  0  0  0  0  0  0  0  0  0  0
   17.9633    0.9235   -7.4735 H   0  0  0  0  0  0  0  0  0  0  0  0
   17.1827    3.5784   -6.9947 H   0  0  0  0  0  0  0  0  0  0  0  0
   17.9480    3.0169   -5.5038 H   0  0  0  0  0  0  0  0  0  0  0  0
   18.8702    5.2550   -7.5275 H   0  0  0  0  0  0  0  0  0  0  0  0
   21.0694    5.7832   -8.3914 H   0  0  0  0  0  0  0  0  0  0  0  0
   23.1599    5.7884  -11.7148 H   0  0  0  0  0  0  0  0  0  0  0  0
   22.4558    6.6238  -10.3249 H   0  0  0  0  0  0  0  0  0  0  0  0
   21.7297    5.1244  -10.9313 H   0  0  0  0  0  0  0  0  0  0  0  0
   26.6299    4.0609   -9.2328 H   0  0  0  0  0  0  0  0  0  0  0  0
   22.2681    1.7095   -7.7632 H   0  0  0  0  0  0  0  0  0  0  0  0
   20.0920    1.1974   -6.8954 H   0  0  0  0  0  0  0  0  0  0  0  0
   14.4513    0.4121   -8.0837 H   0  0  0  0  0  0  0  0  0  0  0  0
   14.6339   -1.3436   -8.0567 H   0  0  0  0  0  0  0  0  0  0  0  0
   13.2190    0.3983   -5.9908 H   0  0  0  0  0  0  0  0  0  0  0  0
   11.9811   -0.7551   -7.5360 H   0  0  0  0  0  0  0  0  0  0  0  0
   14.0236   -2.4467   -5.3427 H   0  0  0  0  0  0  0  0  0  0  0  0
   13.9164   -1.0454   -4.2700 H   0  0  0  0  0  0  0  0  0  0  0  0
   18.2521   -0.7526   -2.5221 H   0  0  0  0  0  0  0  0  0  0  0  0
   18.6827   -2.3994   -2.0764 H   0  0  0  0  0  0  0  0  0  0  0  0
   18.1478   -1.2512   -0.8526 H   0  0  0  0  0  0  0  0  0  0  0  0
   15.7458   -0.0698   -2.6848 H   0  0  0  0  0  0  0  0  0  0  0  0
   15.7645   -0.3228   -0.9602 H   0  0  0  0  0  0  0  0  0  0  0  0
   14.5345   -1.1215   -1.9508 H   0  0  0  0  0  0  0  0  0  0  0  0
  1 35  1  0  0  0  0
  1 36  1  0  0  0  0
  1 37  1  0  0  0  0
  1  2  1  0  0  0  0
  2  3  1  0  0  0  0
  3 33  1  0  0  0  0
  3 34  1  0  0  0  0
  4  3  1  0  0  0  0
  4 38  1  0  0  0  0
  4  5  1  0  0  0  0
  4  9  1  0  0  0  0
  5 39  1  0  0  0  0
  5  6  1  0  0  0  0
  6  7  2  0  0  0  0
  6  8  1  0  0  0  0
  8 40  1  0  0  0  0
  8 41  1  0  0  0  0
  8 42  1  0  0  0  0
  9 10  2  0  0  0  0
  9 11  1  0  0  0  0
 11 32  1  0  0  0  0
 12 11  1  0  0  0  0
 12 29  1  0  0  0  0
 12 43  1  0  0  0  0
 12 13  1  0  0  0  0
 13 14  2  0  0  0  0
 13 15  1  0  0  0  0
 15 44  1  0  0  0  0
 15 16  1  0  0  0  0
 16 45  1  0  0  0  0
 16 46  1  0  0  0  0
 16 17  1  0  0  0  0
 17 18  1  0  0  0  0
 17 28  2  0  0  0  0
 18 47  1  0  0  0  0
 18 19  2  0  0  0  0
 19 48  1  0  0  0  0
 19 20  1  0  0  0  0
 20 27  2  0  0  0  0
 20 21  1  0  0  0  0
 21 22  2  0  0  0  0
 21 26  1  0  0  0  0
 22 23  1  0  0  0  0
 22 24  1  0  0  0  0
 23 49  1  0  0  0  0
 23 50  1  0  0  0  0
 23 51  1  0  0  0  0
 24 25  2  0  0  0  0
 25 52  1  0  0  0  0
 25 26  1  0  0  0  0
 27 53  1  0  0  0  0
 27 28  1  0  0  0  0
 28 54  1  0  0  0  0
 30 29  1  0  0  0  0
 29 55  1  0  0  0  0
 29 56  1  0  0  0  0
 30 32  1  0  0  0  0
 30 57  1  0  0  0  0
 30 31  1  0  0  0  0
 31 58  1  0  0  0  0
 32 59  1  0  0  0  0
 32 60  1  0  0  0  0
 33 61  1  0  0  0  0
 33 62  1  0  0  0  0
 33 63  1  0  0  0  0
 34 64  1  0  0  0  0
 34 65  1  0  0  0  0
 34 66  1  0  0  0  0
M  ZZC   1 c1
M  ZZC   2 s1
M  ZZC   3 c2
M  ZZC   4 c3
M  ZZC   5 n1
M  ZZC   6 c4
M  ZZC   7 o1
M  ZZC   8 c5
M  ZZC   9 c6
M  ZZC  10 o2
M  ZZC  11 n2
M  ZZC  12 c7
M  ZZC  13 c8
M  ZZC  14 o3
M  ZZC  15 n3
M  ZZC  16 c9
M  ZZC  17 c10
M  ZZC  18 c11
M  ZZC  19 c12
M  ZZC  20 c13
M  ZZC  21 c14
M  ZZC  22 c15
M  ZZC  23 c16
M  ZZC  24 n4
M  ZZC  25 c17
M  ZZC  26 s2
M  ZZC  27 c18
M  ZZC  28 c19
M  ZZC  29 c20
M  ZZC  30 c21
M  ZZC  31 o4
M  ZZC  32 c22
M  ZZC  33 c23
M  ZZC  34 c24
M  ZZC  35 h11
M  ZZC  36 h12
M  ZZC  37 h13
M  ZZC  38 h31
M  ZZC  39 h01
M  ZZC  40 h51
M  ZZC  41 h52
M  ZZC  42 h53
M  ZZC  43 h71
M  ZZC  44 h02
M  ZZC  45 h91
M  ZZC  46 h92
M  ZZC  47 h111
M  ZZC  48 h121
M  ZZC  49 h161
M  ZZC  50 h162
M  ZZC  51 h163
M  ZZC  52 h171
M  ZZC  53 h181
M  ZZC  54 h191
M  ZZC  55 h201
M  ZZC  56 h202
M  ZZC  57 h211
M  ZZC  58 h41
M  ZZC  59 h221
M  ZZC  60 h222
M  ZZC  61 h231
M  ZZC  62 h232
M  ZZC  63 h233
M  ZZC  64 h241
M  ZZC  65 h242
M  ZZC  66 h243
M  ZZM   1 1
M  ZZI   1 111
M  ZZM   2 15
M  ZZI   2 253
M  ZZM   3 1
M  ZZI   3 110
M  ZZM   4 1
M  ZZI   4 113
M  ZZM   5 10
M  ZZI   5 211
M  ZZM   6 3
M  ZZI   6 121
M  ZZM   7 7
M  ZZI   7 81
M  ZZM   8 1
M  ZZI   8 111
M  ZZM   9 3
M  ZZI   9 121
M  ZZM  10 7
M  ZZI  10 81
M  ZZM  11 10
M  ZZI  11 192
M  ZZM  12 1
M  ZZI  12 113
M  ZZM  13 3
M  ZZI  13 121
M  ZZM  14 7
M  ZZI  14 81
M  ZZM  15 10
M  ZZI  15 211
M  ZZM  16 1
M  ZZI  16 112
M  ZZM  17 37
M  ZZI  17 124
M  ZZM  18 37
M  ZZI  18 125
M  ZZM  19 37
M  ZZI  19 125
M  ZZM  20 37
M  ZZI  20 124
M  ZZM  21 63
M  ZZI  21 104
M  ZZM  22 64
M  ZZI  22 105
M  ZZM  23 1
M  ZZI  23 111
M  ZZM  24 66
M  ZZI  24 222
M  ZZM  25 63
M  ZZI  25 104
M  ZZM  26 44
M  ZZI  26 248
M  ZZM  27 37
M  ZZI  27 125
M  ZZM  28 37
M  ZZI  28 125
M  ZZM  29 1
M  ZZI  29 112
M  ZZM  30 1
M  ZZI  30 113
M  ZZM  31 6
M  ZZI  31 60
M  ZZM  32 1
M  ZZI  32 112
M  ZZM  33 1
M  ZZI  33 111
M  ZZM  34 1
M  ZZI  34 111
M  ZZM  35 5
M  ZZI  35 1
M  ZZM  36 5
M  ZZI  36 1
M  ZZM  37 5
M  ZZI  37 1
M  ZZM  38 5
M  ZZI  38 1
M  ZZM  39 28
M  ZZI  39 11
M  ZZM  40 5
M  ZZI  40 1
M  ZZM  41 5
M  ZZI  41 1
M  ZZM  42 5
M  ZZI  42 1
M  ZZM  43 5
M  ZZI  43 1
M  ZZM  44 28
M  ZZI  44 11
M  ZZM  45 5
M  ZZI  45 1
M  ZZM  46 5
M  ZZI  46 1
M  ZZM  47 5
M  ZZI  47 1
M  ZZM  48 5
M  ZZI  48 1
M  ZZM  49 5
M  ZZI  49 1
M  ZZM  50 5
M  ZZI  50 1
M  ZZM  51 5
M  ZZI  51 1
M  ZZM  52 5
M  ZZI  52 1
M  ZZM  53 5
M  ZZI  53 1
M  ZZM  54 5
M  ZZI  54 1
M  ZZM  55 5
M  ZZI  55 1
M  ZZM  56 5
M  ZZI  56 1
M  ZZM  57 5
M  ZZI  57 1
M  ZZM  58 21
M  ZZI  58 20
M  ZZM  59 5
M  ZZI  59 1
M  ZZM  60 5
M  ZZI  60 1
M  ZZM  61 5
M  ZZI  61 1
M  ZZM  62 5
M  ZZI  62 1
M  ZZM  63 5
M  ZZI  63 1
M  ZZM  64 5
M  ZZI  64 1
M  ZZM  65 5
M  ZZI  65 1
M  ZZM  66 5
M  ZZI  66 1
M  END
> <IX>
1

> <NAME>
VHL_3MXF_7.pdb

> <Score>
-13.592295

> <Natom>
66

> <Nflex>
9

> <Hbond>
-4.948813

> <Hphob>
-6.180624

> <VwInt>
-30.487414

> <Dsolv>
17.347454

> <SolEl>
19.322365

> <Eintl>
3.988804

> <RecConf>
ND

> <projPath>
VHL_maps/

> <NAME_>
VHL_3MXF_7.pdb

$$$$
