VHL_6NY4_3.pdb
  MOLSOFT 04032206423D

 65 67  0  0  1  0  0  0  0  0999 V2000
   18.0517   -7.0383   -5.1086 C   0  0  0  0  0  0  0  0  0  0  0  0
   16.9111   -6.0607   -5.0684 C   0  0  0  0  0  0  0  0  0  0  0  0
   15.8362   -6.3320   -5.5751 O   0  0  0  0  0  0  0  0  0  0  0  0
   17.2019   -4.8984   -4.3833 N   0  0  0  0  0  0  0  0  0  0  0  0
   16.2643   -3.7792   -4.2132 C   0  0  1  0  0  0  0  0  0  0  0  0
   15.8544   -3.5622   -2.7246 C   0  0  0  0  0  0  0  0  0  0  0  0
   15.3308   -4.8873   -2.1557 C   0  0  0  0  0  0  0  0  0  0  0  0
   17.0255   -3.0751   -1.8589 C   0  0  0  0  0  0  0  0  0  0  0  0
   14.7187   -2.5374   -2.5880 C   0  0  0  0  0  0  0  0  0  0  0  0
   16.9631   -2.5766   -4.8711 C   0  0  0  0  0  0  0  0  0  0  0  0
   18.1666   -2.3971   -4.7424 O   0  0  0  0  0  0  0  0  0  0  0  0
   16.1910   -1.6720   -5.5968 N   0  0  0  0  0  0  0  0  0  0  0  0
   16.8271   -0.5805   -6.3223 C   0  0  2  0  0  0  0  0  0  0  0  0
   17.3639    0.5080   -5.3953 C   0  0  0  0  0  0  0  0  0  0  0  0
   16.9147    0.7097   -4.2748 O   0  0  0  0  0  0  0  0  0  0  0  0
   18.3288    1.2957   -5.9997 N   0  0  0  0  0  0  0  0  0  0  0  0
   18.6913    2.5980   -5.4760 C   0  0  0  0  0  0  0  0  0  0  0  0
   17.6894    3.6069   -5.9704 C   0  0  0  0  0  0  0  0  0  0  0  0
   17.9206    4.3474   -7.1266 C   0  0  0  0  0  0  0  0  0  0  0  0
   16.8955    5.0767   -7.7075 C   0  0  0  0  0  0  0  0  0  0  0  0
   15.6203    5.0425   -7.1564 C   0  0  0  0  0  0  0  0  0  0  0  0
   14.4780    5.5971   -7.8494 C   0  0  0  0  0  0  0  0  0  0  0  0
   13.4494    4.9371   -8.5062 C   0  0  0  0  0  0  0  0  0  0  0  0
   13.3302    3.4766   -8.7353 C   0  0  0  0  0  0  0  0  0  0  0  0
   12.4372    5.7545   -8.9550 N   0  0  0  0  0  0  0  0  0  0  0  0
   12.7453    7.0058   -8.6933 C   0  0  0  0  0  0  0  0  0  0  0  0
   14.2223    7.2901   -7.8935 S   0  0  0  0  0  0  0  0  0  0  0  0
   15.4152    4.3880   -5.9522 C   0  0  0  0  0  0  0  0  0  0  0  0
   16.4453    3.6953   -5.3553 C   0  0  0  0  0  0  0  0  0  0  0  0
   15.7352   -0.0266   -7.2376 C   0  0  0  0  0  0  0  0  0  0  0  0
   14.4570   -0.3921   -6.5054 C   0  0  1  0  0  0  0  0  0  0  0  0
   13.3419   -0.4416   -7.3911 O   0  0  0  0  0  0  0  0  0  0  0  0
   14.7960   -1.7638   -5.9579 C   0  0  0  0  0  0  0  0  0  0  0  0
   19.0097   -6.5184   -5.2057 H   0  0  0  0  0  0  0  0  0  0  0  0
   17.9298   -7.7023   -5.9693 H   0  0  0  0  0  0  0  0  0  0  0  0
   18.0408   -7.6321   -4.1919 H   0  0  0  0  0  0  0  0  0  0  0  0
   18.1543   -4.7660   -4.0603 H   0  0  0  0  0  0  0  0  0  0  0  0
   15.3655   -4.0202   -4.7743 H   0  0  0  0  0  0  0  0  0  0  0  0
   14.9968   -4.7684   -1.1219 H   0  0  0  0  0  0  0  0  0  0  0  0
   16.0982   -5.6639   -2.1627 H   0  0  0  0  0  0  0  0  0  0  0  0
   14.4806   -5.2640   -2.7330 H   0  0  0  0  0  0  0  0  0  0  0  0
   16.7413   -3.0070   -0.8039 H   0  0  0  0  0  0  0  0  0  0  0  0
   17.3720   -2.0821   -2.1617 H   0  0  0  0  0  0  0  0  0  0  0  0
   17.8771   -3.7509   -1.9164 H   0  0  0  0  0  0  0  0  0  0  0  0
   15.0177   -1.5564   -2.9717 H   0  0  0  0  0  0  0  0  0  0  0  0
   14.4363   -2.3925   -1.5410 H   0  0  0  0  0  0  0  0  0  0  0  0
   13.8273   -2.8359   -3.1471 H   0  0  0  0  0  0  0  0  0  0  0  0
   17.6543   -0.9783   -6.9073 H   0  0  0  0  0  0  0  0  0  0  0  0
   18.6967    1.0237   -6.9068 H   0  0  0  0  0  0  0  0  0  0  0  0
   18.7087    2.5695   -4.3808 H   0  0  0  0  0  0  0  0  0  0  0  0
   19.7020    2.8353   -5.8241 H   0  0  0  0  0  0  0  0  0  0  0  0
   18.8901    4.3168   -7.6151 H   0  0  0  0  0  0  0  0  0  0  0  0
   17.0831    5.6257   -8.6260 H   0  0  0  0  0  0  0  0  0  0  0  0
   12.4387    3.2495   -9.3267 H   0  0  0  0  0  0  0  0  0  0  0  0
   13.2421    2.9329   -7.7908 H   0  0  0  0  0  0  0  0  0  0  0  0
   14.2036    3.0880   -9.2658 H   0  0  0  0  0  0  0  0  0  0  0  0
   12.1039    7.8278   -8.9560 H   0  0  0  0  0  0  0  0  0  0  0  0
   14.4308    4.3743   -5.4918 H   0  0  0  0  0  0  0  0  0  0  0  0
   16.2424    3.1523   -4.4370 H   0  0  0  0  0  0  0  0  0  0  0  0
   15.8069    1.0494   -7.4278 H   0  0  0  0  0  0  0  0  0  0  0  0
   15.7640   -0.5215   -8.2159 H   0  0  0  0  0  0  0  0  0  0  0  0
   14.2553    0.3267   -5.7018 H   0  0  0  0  0  0  0  0  0  0  0  0
   12.5331   -0.3490   -6.8572 H   0  0  0  0  0  0  0  0  0  0  0  0
   14.7200   -2.5205   -6.7429 H   0  0  0  0  0  0  0  0  0  0  0  0
   14.1520   -2.0649   -5.1327 H   0  0  0  0  0  0  0  0  0  0  0  0
  1 34  1  0  0  0  0
  1 35  1  0  0  0  0
  1 36  1  0  0  0  0
  1  2  1  0  0  0  0
  2  3  2  0  0  0  0
  2  4  1  0  0  0  0
  4 37  1  0  0  0  0
  5  4  1  0  0  0  0
  5 38  1  0  0  0  0
  5  6  1  0  0  0  0
  5 10  1  0  0  0  0
  6  7  1  0  0  0  0
  6  8  1  0  0  0  0
  6  9  1  0  0  0  0
  7 39  1  0  0  0  0
  7 40  1  0  0  0  0
  7 41  1  0  0  0  0
  8 42  1  0  0  0  0
  8 43  1  0  0  0  0
  8 44  1  0  0  0  0
  9 45  1  0  0  0  0
  9 46  1  0  0  0  0
  9 47  1  0  0  0  0
 10 11  2  0  0  0  0
 10 12  1  0  0  0  0
 12 33  1  0  0  0  0
 13 12  1  0  0  0  0
 13 30  1  0  0  0  0
 13 48  1  0  0  0  0
 13 14  1  0  0  0  0
 14 15  2  0  0  0  0
 14 16  1  0  0  0  0
 16 49  1  0  0  0  0
 16 17  1  0  0  0  0
 17 50  1  0  0  0  0
 17 51  1  0  0  0  0
 17 18  1  0  0  0  0
 18 19  1  0  0  0  0
 18 29  2  0  0  0  0
 19 52  1  0  0  0  0
 19 20  2  0  0  0  0
 20 53  1  0  0  0  0
 20 21  1  0  0  0  0
 21 28  2  0  0  0  0
 21 22  1  0  0  0  0
 22 23  2  0  0  0  0
 22 27  1  0  0  0  0
 23 24  1  0  0  0  0
 23 25  1  0  0  0  0
 24 54  1  0  0  0  0
 24 55  1  0  0  0  0
 24 56  1  0  0  0  0
 25 26  2  0  0  0  0
 26 57  1  0  0  0  0
 26 27  1  0  0  0  0
 28 58  1  0  0  0  0
 28 29  1  0  0  0  0
 29 59  1  0  0  0  0
 31 30  1  0  0  0  0
 30 60  1  0  0  0  0
 30 61  1  0  0  0  0
 31 33  1  0  0  0  0
 31 62  1  0  0  0  0
 31 32  1  0  0  0  0
 32 63  1  0  0  0  0
 33 64  1  0  0  0  0
 33 65  1  0  0  0  0
M  ZZC   1 c1
M  ZZC   2 c2
M  ZZC   3 o1
M  ZZC   4 n1
M  ZZC   5 c3
M  ZZC   6 c4
M  ZZC   7 c5
M  ZZC   8 c6
M  ZZC   9 c7
M  ZZC  10 c8
M  ZZC  11 o2
M  ZZC  12 n2
M  ZZC  13 c9
M  ZZC  14 c10
M  ZZC  15 o3
M  ZZC  16 n3
M  ZZC  17 c11
M  ZZC  18 c12
M  ZZC  19 c13
M  ZZC  20 c14
M  ZZC  21 c15
M  ZZC  22 c16
M  ZZC  23 c17
M  ZZC  24 c18
M  ZZC  25 n4
M  ZZC  26 c19
M  ZZC  27 s1
M  ZZC  28 c20
M  ZZC  29 c21
M  ZZC  30 c22
M  ZZC  31 c23
M  ZZC  32 o4
M  ZZC  33 c24
M  ZZC  34 h11
M  ZZC  35 h12
M  ZZC  36 h13
M  ZZC  37 h01
M  ZZC  38 h31
M  ZZC  39 h51
M  ZZC  40 h52
M  ZZC  41 h53
M  ZZC  42 h61
M  ZZC  43 h62
M  ZZC  44 h63
M  ZZC  45 h71
M  ZZC  46 h72
M  ZZC  47 h73
M  ZZC  48 h91
M  ZZC  49 h02
M  ZZC  50 h111
M  ZZC  51 h112
M  ZZC  52 h131
M  ZZC  53 h141
M  ZZC  54 h181
M  ZZC  55 h182
M  ZZC  56 h183
M  ZZC  57 h191
M  ZZC  58 h201
M  ZZC  59 h211
M  ZZC  60 h221
M  ZZC  61 h222
M  ZZC  62 h231
M  ZZC  63 h41
M  ZZC  64 h241
M  ZZC  65 h242
M  ZZM   1 1
M  ZZI   1 111
M  ZZM   2 3
M  ZZI   2 121
M  ZZM   3 7
M  ZZI   3 81
M  ZZM   4 10
M  ZZI   4 211
M  ZZM   5 1
M  ZZI   5 113
M  ZZM   6 1
M  ZZI   6 110
M  ZZM   7 1
M  ZZI   7 111
M  ZZM   8 1
M  ZZI   8 111
M  ZZM   9 1
M  ZZI   9 111
M  ZZM  10 3
M  ZZI  10 121
M  ZZM  11 7
M  ZZI  11 81
M  ZZM  12 10
M  ZZI  12 192
M  ZZM  13 1
M  ZZI  13 113
M  ZZM  14 3
M  ZZI  14 121
M  ZZM  15 7
M  ZZI  15 81
M  ZZM  16 10
M  ZZI  16 211
M  ZZM  17 1
M  ZZI  17 112
M  ZZM  18 37
M  ZZI  18 124
M  ZZM  19 37
M  ZZI  19 125
M  ZZM  20 37
M  ZZI  20 125
M  ZZM  21 37
M  ZZI  21 124
M  ZZM  22 63
M  ZZI  22 104
M  ZZM  23 64
M  ZZI  23 105
M  ZZM  24 1
M  ZZI  24 111
M  ZZM  25 66
M  ZZI  25 222
M  ZZM  26 63
M  ZZI  26 104
M  ZZM  27 44
M  ZZI  27 248
M  ZZM  28 37
M  ZZI  28 125
M  ZZM  29 37
M  ZZI  29 125
M  ZZM  30 1
M  ZZI  30 112
M  ZZM  31 1
M  ZZI  31 113
M  ZZM  32 6
M  ZZI  32 60
M  ZZM  33 1
M  ZZI  33 112
M  ZZM  34 5
M  ZZI  34 1
M  ZZM  35 5
M  ZZI  35 1
M  ZZM  36 5
M  ZZI  36 1
M  ZZM  37 28
M  ZZI  37 11
M  ZZM  38 5
M  ZZI  38 1
M  ZZM  39 5
M  ZZI  39 1
M  ZZM  40 5
M  ZZI  40 1
M  ZZM  41 5
M  ZZI  41 1
M  ZZM  42 5
M  ZZI  42 1
M  ZZM  43 5
M  ZZI  43 1
M  ZZM  44 5
M  ZZI  44 1
M  ZZM  45 5
M  ZZI  45 1
M  ZZM  46 5
M  ZZI  46 1
M  ZZM  47 5
M  ZZI  47 1
M  ZZM  48 5
M  ZZI  48 1
M  ZZM  49 28
M  ZZI  49 11
M  ZZM  50 5
M  ZZI  50 1
M  ZZM  51 5
M  ZZI  51 1
M  ZZM  52 5
M  ZZI  52 1
M  ZZM  53 5
M  ZZI  53 1
M  ZZM  54 5
M  ZZI  54 1
M  ZZM  55 5
M  ZZI  55 1
M  ZZM  56 5
M  ZZI  56 1
M  ZZM  57 5
M  ZZI  57 1
M  ZZM  58 5
M  ZZI  58 1
M  ZZM  59 5
M  ZZI  59 1
M  ZZM  60 5
M  ZZI  60 1
M  ZZM  61 5
M  ZZI  61 1
M  ZZM  62 5
M  ZZI  62 1
M  ZZM  63 21
M  ZZI  63 20
M  ZZM  64 5
M  ZZI  64 1
M  ZZM  65 5
M  ZZI  65 1
M  END
> <IX>
1

> <NAME>
VHL_6NY4_3.pdb

> <Score>
-7.356364

> <Natom>
65

> <Nflex>
8

> <Hbond>
-6.230901

> <Hphob>
-6.845531

> <VwInt>
-28.31795

> <Dsolv>
21.646617

> <SolEl>
23.893563

> <Eintl>
7.512594

> <RecConf>
ND

> <projPath>
VHL_maps/

> <NAME_>
VHL_6NY4_3.pdb

$$$$
