VHL_4MKC_6.pdb
  MOLSOFT 04032206383D

 65 67  0  0  1  0  0  0  0  0999 V2000
   18.0898   -6.8343   -5.1308 C   0  0  0  0  0  0  0  0  0  0  0  0
   16.8847   -5.9434   -5.0038 C   0  0  0  0  0  0  0  0  0  0  0  0
   15.8130   -6.2710   -5.4829 O   0  0  0  0  0  0  0  0  0  0  0  0
   17.1207   -4.7907   -4.2815 N   0  0  0  0  0  0  0  0  0  0  0  0
   16.1222   -3.7388   -4.0282 C   0  0  1  0  0  0  0  0  0  0  0  0
   15.8503   -3.5466   -2.5077 C   0  0  0  0  0  0  0  0  0  0  0  0
   17.1005   -3.0965   -1.7388 C   0  0  0  0  0  0  0  0  0  0  0  0
   15.3594   -4.8853   -1.9511 C   0  0  0  0  0  0  0  0  0  0  0  0
   14.7476   -2.5220   -2.2192 C   0  0  0  0  0  0  0  0  0  0  0  0
   16.6656   -2.5118   -4.7807 C   0  0  0  0  0  0  0  0  0  0  0  0
   17.8682   -2.2772   -4.8111 O   0  0  0  0  0  0  0  0  0  0  0  0
   15.7530   -1.6971   -5.4540 N   0  0  0  0  0  0  0  0  0  0  0  0
   16.2172   -0.7442   -6.4448 C   0  0  2  0  0  0  0  0  0  0  0  0
   16.7256    0.5339   -5.7779 C   0  0  0  0  0  0  0  0  0  0  0  0
   16.2529    0.9736   -4.7381 O   0  0  0  0  0  0  0  0  0  0  0  0
   17.7350    1.1544   -6.4902 N   0  0  0  0  0  0  0  0  0  0  0  0
   18.3775    2.3690   -6.0327 C   0  0  0  0  0  0  0  0  0  0  0  0
   17.7092    3.6044   -6.5771 C   0  0  0  0  0  0  0  0  0  0  0  0
   18.3219    4.3804   -7.5555 C   0  0  0  0  0  0  0  0  0  0  0  0
   17.6993    5.5142   -8.0519 C   0  0  0  0  0  0  0  0  0  0  0  0
   16.4456    5.9025   -7.5850 C   0  0  0  0  0  0  0  0  0  0  0  0
   15.7745    7.0926   -8.0922 C   0  0  0  0  0  0  0  0  0  0  0  0
   14.4709    7.2756   -8.5368 C   0  0  0  0  0  0  0  0  0  0  0  0
   13.4101    6.2506   -8.6607 C   0  0  0  0  0  0  0  0  0  0  0  0
   14.1537    8.5672   -8.8944 N   0  0  0  0  0  0  0  0  0  0  0  0
   15.2082    9.3388   -8.7588 C   0  0  0  0  0  0  0  0  0  0  0  0
   16.6202    8.5900   -8.1689 S   0  0  0  0  0  0  0  0  0  0  0  0
   15.8363    5.1248   -6.6082 C   0  0  0  0  0  0  0  0  0  0  0  0
   16.4596    3.9976   -6.1105 C   0  0  0  0  0  0  0  0  0  0  0  0
   15.0026   -0.4970   -7.3256 C   0  0  0  0  0  0  0  0  0  0  0  0
   13.8200   -0.6666   -6.3830 C   0  0  1  0  0  0  0  0  0  0  0  0
   12.6800   -1.2033   -7.0508 O   0  0  0  0  0  0  0  0  0  0  0  0
   14.3068   -1.6516   -5.3332 C   0  0  0  0  0  0  0  0  0  0  0  0
   19.0101   -6.2455   -5.1921 H   0  0  0  0  0  0  0  0  0  0  0  0
   18.0034   -7.4357   -6.0405 H   0  0  0  0  0  0  0  0  0  0  0  0
   18.1331   -7.4978   -4.2638 H   0  0  0  0  0  0  0  0  0  0  0  0
   18.0781   -4.6016   -4.0046 H   0  0  0  0  0  0  0  0  0  0  0  0
   15.1932   -4.0586   -4.4992 H   0  0  0  0  0  0  0  0  0  0  0  0
   16.9037   -3.0224   -0.6644 H   0  0  0  0  0  0  0  0  0  0  0  0
   17.4511   -2.1148   -2.0723 H   0  0  0  0  0  0  0  0  0  0  0  0
   17.9239   -3.7958   -1.8617 H   0  0  0  0  0  0  0  0  0  0  0  0
   15.0972   -4.7947   -0.8956 H   0  0  0  0  0  0  0  0  0  0  0  0
   16.1185   -5.6637   -2.0453 H   0  0  0  0  0  0  0  0  0  0  0  0
   14.4678   -5.2387   -2.4791 H   0  0  0  0  0  0  0  0  0  0  0  0
   15.0529   -1.5105   -2.5003 H   0  0  0  0  0  0  0  0  0  0  0  0
   14.5082   -2.4844   -1.1512 H   0  0  0  0  0  0  0  0  0  0  0  0
   13.8194   -2.7760   -2.7400 H   0  0  0  0  0  0  0  0  0  0  0  0
   17.0312   -1.1889   -7.0239 H   0  0  0  0  0  0  0  0  0  0  0  0
   18.0923    0.7179   -7.3341 H   0  0  0  0  0  0  0  0  0  0  0  0
   18.3806    2.3956   -4.9374 H   0  0  0  0  0  0  0  0  0  0  0  0
   19.4224    2.3193   -6.3568 H   0  0  0  0  0  0  0  0  0  0  0  0
   19.2999    4.1065   -7.9406 H   0  0  0  0  0  0  0  0  0  0  0  0
   18.2048    6.0918   -8.8210 H   0  0  0  0  0  0  0  0  0  0  0  0
   12.6438    6.5504   -9.3816 H   0  0  0  0  0  0  0  0  0  0  0  0
   12.9116    6.0900   -7.7019 H   0  0  0  0  0  0  0  0  0  0  0  0
   13.8362    5.2966   -8.9810 H   0  0  0  0  0  0  0  0  0  0  0  0
   15.1939   10.3909   -9.0030 H   0  0  0  0  0  0  0  0  0  0  0  0
   14.8655    5.4004   -6.2064 H   0  0  0  0  0  0  0  0  0  0  0  0
   15.9556    3.4250   -5.3381 H   0  0  0  0  0  0  0  0  0  0  0  0
   15.0050    0.4863   -7.8075 H   0  0  0  0  0  0  0  0  0  0  0  0
   14.9592   -1.2474   -8.1227 H   0  0  0  0  0  0  0  0  0  0  0  0
   13.5396    0.2869   -5.9209 H   0  0  0  0  0  0  0  0  0  0  0  0
   12.4145   -0.5809   -7.7513 H   0  0  0  0  0  0  0  0  0  0  0  0
   13.8717   -2.6474   -5.4237 H   0  0  0  0  0  0  0  0  0  0  0  0
   14.0453   -1.2639   -4.3499 H   0  0  0  0  0  0  0  0  0  0  0  0
  1 34  1  0  0  0  0
  1 35  1  0  0  0  0
  1 36  1  0  0  0  0
  1  2  1  0  0  0  0
  2  3  2  0  0  0  0
  2  4  1  0  0  0  0
  4 37  1  0  0  0  0
  5  4  1  0  0  0  0
  5 38  1  0  0  0  0
  5  6  1  0  0  0  0
  5 10  1  0  0  0  0
  6  7  1  0  0  0  0
  6  8  1  0  0  0  0
  6  9  1  0  0  0  0
  7 39  1  0  0  0  0
  7 40  1  0  0  0  0
  7 41  1  0  0  0  0
  8 42  1  0  0  0  0
  8 43  1  0  0  0  0
  8 44  1  0  0  0  0
  9 45  1  0  0  0  0
  9 46  1  0  0  0  0
  9 47  1  0  0  0  0
 10 11  2  0  0  0  0
 10 12  1  0  0  0  0
 12 33  1  0  0  0  0
 13 12  1  0  0  0  0
 13 30  1  0  0  0  0
 13 48  1  0  0  0  0
 13 14  1  0  0  0  0
 14 15  2  0  0  0  0
 14 16  1  0  0  0  0
 16 49  1  0  0  0  0
 16 17  1  0  0  0  0
 17 50  1  0  0  0  0
 17 51  1  0  0  0  0
 17 18  1  0  0  0  0
 18 19  1  0  0  0  0
 18 29  2  0  0  0  0
 19 52  1  0  0  0  0
 19 20  2  0  0  0  0
 20 53  1  0  0  0  0
 20 21  1  0  0  0  0
 21 28  2  0  0  0  0
 21 22  1  0  0  0  0
 22 23  2  0  0  0  0
 22 27  1  0  0  0  0
 23 24  1  0  0  0  0
 23 25  1  0  0  0  0
 24 54  1  0  0  0  0
 24 55  1  0  0  0  0
 24 56  1  0  0  0  0
 25 26  2  0  0  0  0
 26 57  1  0  0  0  0
 26 27  1  0  0  0  0
 28 58  1  0  0  0  0
 28 29  1  0  0  0  0
 29 59  1  0  0  0  0
 31 30  1  0  0  0  0
 30 60  1  0  0  0  0
 30 61  1  0  0  0  0
 31 33  1  0  0  0  0
 31 62  1  0  0  0  0
 31 32  1  0  0  0  0
 32 63  1  0  0  0  0
 33 64  1  0  0  0  0
 33 65  1  0  0  0  0
M  ZZC   1 c1
M  ZZC   2 c2
M  ZZC   3 o1
M  ZZC   4 n1
M  ZZC   5 c3
M  ZZC   6 c4
M  ZZC   7 c5
M  ZZC   8 c6
M  ZZC   9 c7
M  ZZC  10 c8
M  ZZC  11 o2
M  ZZC  12 n2
M  ZZC  13 c9
M  ZZC  14 c10
M  ZZC  15 o3
M  ZZC  16 n3
M  ZZC  17 c11
M  ZZC  18 c12
M  ZZC  19 c13
M  ZZC  20 c14
M  ZZC  21 c15
M  ZZC  22 c16
M  ZZC  23 c17
M  ZZC  24 c18
M  ZZC  25 n4
M  ZZC  26 c19
M  ZZC  27 s1
M  ZZC  28 c20
M  ZZC  29 c21
M  ZZC  30 c22
M  ZZC  31 c23
M  ZZC  32 o4
M  ZZC  33 c24
M  ZZC  34 h11
M  ZZC  35 h12
M  ZZC  36 h13
M  ZZC  37 h01
M  ZZC  38 h31
M  ZZC  39 h51
M  ZZC  40 h52
M  ZZC  41 h53
M  ZZC  42 h61
M  ZZC  43 h62
M  ZZC  44 h63
M  ZZC  45 h71
M  ZZC  46 h72
M  ZZC  47 h73
M  ZZC  48 h91
M  ZZC  49 h02
M  ZZC  50 h111
M  ZZC  51 h112
M  ZZC  52 h131
M  ZZC  53 h141
M  ZZC  54 h181
M  ZZC  55 h182
M  ZZC  56 h183
M  ZZC  57 h191
M  ZZC  58 h201
M  ZZC  59 h211
M  ZZC  60 h221
M  ZZC  61 h222
M  ZZC  62 h231
M  ZZC  63 h41
M  ZZC  64 h241
M  ZZC  65 h242
M  ZZM   1 1
M  ZZI   1 111
M  ZZM   2 3
M  ZZI   2 121
M  ZZM   3 7
M  ZZI   3 81
M  ZZM   4 10
M  ZZI   4 211
M  ZZM   5 1
M  ZZI   5 113
M  ZZM   6 1
M  ZZI   6 110
M  ZZM   7 1
M  ZZI   7 111
M  ZZM   8 1
M  ZZI   8 111
M  ZZM   9 1
M  ZZI   9 111
M  ZZM  10 3
M  ZZI  10 121
M  ZZM  11 7
M  ZZI  11 81
M  ZZM  12 10
M  ZZI  12 192
M  ZZM  13 1
M  ZZI  13 113
M  ZZM  14 3
M  ZZI  14 121
M  ZZM  15 7
M  ZZI  15 81
M  ZZM  16 10
M  ZZI  16 211
M  ZZM  17 1
M  ZZI  17 112
M  ZZM  18 37
M  ZZI  18 124
M  ZZM  19 37
M  ZZI  19 125
M  ZZM  20 37
M  ZZI  20 125
M  ZZM  21 37
M  ZZI  21 124
M  ZZM  22 63
M  ZZI  22 104
M  ZZM  23 64
M  ZZI  23 105
M  ZZM  24 1
M  ZZI  24 111
M  ZZM  25 66
M  ZZI  25 222
M  ZZM  26 63
M  ZZI  26 104
M  ZZM  27 44
M  ZZI  27 248
M  ZZM  28 37
M  ZZI  28 125
M  ZZM  29 37
M  ZZI  29 125
M  ZZM  30 1
M  ZZI  30 112
M  ZZM  31 1
M  ZZI  31 113
M  ZZM  32 6
M  ZZI  32 60
M  ZZM  33 1
M  ZZI  33 112
M  ZZM  34 5
M  ZZI  34 1
M  ZZM  35 5
M  ZZI  35 1
M  ZZM  36 5
M  ZZI  36 1
M  ZZM  37 28
M  ZZI  37 11
M  ZZM  38 5
M  ZZI  38 1
M  ZZM  39 5
M  ZZI  39 1
M  ZZM  40 5
M  ZZI  40 1
M  ZZM  41 5
M  ZZI  41 1
M  ZZM  42 5
M  ZZI  42 1
M  ZZM  43 5
M  ZZI  43 1
M  ZZM  44 5
M  ZZI  44 1
M  ZZM  45 5
M  ZZI  45 1
M  ZZM  46 5
M  ZZI  46 1
M  ZZM  47 5
M  ZZI  47 1
M  ZZM  48 5
M  ZZI  48 1
M  ZZM  49 28
M  ZZI  49 11
M  ZZM  50 5
M  ZZI  50 1
M  ZZM  51 5
M  ZZI  51 1
M  ZZM  52 5
M  ZZI  52 1
M  ZZM  53 5
M  ZZI  53 1
M  ZZM  54 5
M  ZZI  54 1
M  ZZM  55 5
M  ZZI  55 1
M  ZZM  56 5
M  ZZI  56 1
M  ZZM  57 5
M  ZZI  57 1
M  ZZM  58 5
M  ZZI  58 1
M  ZZM  59 5
M  ZZI  59 1
M  ZZM  60 5
M  ZZI  60 1
M  ZZM  61 5
M  ZZI  61 1
M  ZZM  62 5
M  ZZI  62 1
M  ZZM  63 21
M  ZZI  63 20
M  ZZM  64 5
M  ZZI  64 1
M  ZZM  65 5
M  ZZI  65 1
M  END
> <IX>
1

> <NAME>
VHL_4MKC_6.pdb

> <Score>
-4.789955

> <Natom>
65

> <Nflex>
8

> <Hbond>
-5.155874

> <Hphob>
-6.445167

> <VwInt>
-27.497586

> <Dsolv>
22.567551

> <SolEl>
22.230356

> <Eintl>
6.120925

> <RecConf>
ND

> <projPath>
VHL_maps/

> <NAME_>
VHL_4MKC_6.pdb

$$$$
