VHL_5G0I_16.pdb
  MOLSOFT 04032206393D

 65 67  0  0  1  0  0  0  0  0999 V2000
   18.4650   -6.6675   -5.4547 C   0  0  0  0  0  0  0  0  0  0  0  0
   17.2406   -5.7979   -5.3516 C   0  0  0  0  0  0  0  0  0  0  0  0
   16.1363   -6.2404   -5.6253 O   0  0  0  0  0  0  0  0  0  0  0  0
   17.5003   -4.5146   -4.9048 N   0  0  0  0  0  0  0  0  0  0  0  0
   16.4755   -3.4806   -4.7143 C   0  0  1  0  0  0  0  0  0  0  0  0
   15.8929   -3.4578   -3.2620 C   0  0  0  0  0  0  0  0  0  0  0  0
   15.4582   -4.8588   -2.8015 C   0  0  0  0  0  0  0  0  0  0  0  0
   16.9179   -2.9366   -2.2428 C   0  0  0  0  0  0  0  0  0  0  0  0
   14.6448   -2.5651   -3.2071 C   0  0  0  0  0  0  0  0  0  0  0  0
   17.1164   -2.1371   -5.1300 C   0  0  0  0  0  0  0  0  0  0  0  0
   18.2519   -1.8537   -4.7779 O   0  0  0  0  0  0  0  0  0  0  0  0
   16.3637   -1.2221   -5.8732 N   0  0  0  0  0  0  0  0  0  0  0  0
   16.9043    0.1067   -6.1782 C   0  0  2  0  0  0  0  0  0  0  0  0
   16.8736    1.0765   -4.9946 C   0  0  0  0  0  0  0  0  0  0  0  0
   17.7503    1.9146   -4.8406 O   0  0  0  0  0  0  0  0  0  0  0  0
   15.7069    1.0486   -4.2514 N   0  0  0  0  0  0  0  0  0  0  0  0
   15.4201    2.0081   -3.2026 C   0  0  0  0  0  0  0  0  0  0  0  0
   15.1153    1.3316   -1.8932 C   0  0  0  0  0  0  0  0  0  0  0  0
   16.1175    0.6637   -1.1985 C   0  0  0  0  0  0  0  0  0  0  0  0
   15.8509    0.0388    0.0072 C   0  0  0  0  0  0  0  0  0  0  0  0
   14.5749    0.0701    0.5576 C   0  0  0  0  0  0  0  0  0  0  0  0
   14.2954   -0.5886    1.8274 C   0  0  0  0  0  0  0  0  0  0  0  0
   14.5083   -1.8988    2.2367 C   0  0  0  0  0  0  0  0  0  0  0  0
   15.1143   -2.9921    1.4451 C   0  0  0  0  0  0  0  0  0  0  0  0
   14.0890   -2.1896    3.5196 N   0  0  0  0  0  0  0  0  0  0  0  0
   13.5986   -1.1070    4.0786 C   0  0  0  0  0  0  0  0  0  0  0  0
   13.6143    0.3098    3.1267 S   0  0  0  0  0  0  0  0  0  0  0  0
   13.5742    0.7436   -0.1356 C   0  0  0  0  0  0  0  0  0  0  0  0
   13.8377    1.3657   -1.3444 C   0  0  0  0  0  0  0  0  0  0  0  0
   16.0174    0.6579   -7.2924 C   0  0  0  0  0  0  0  0  0  0  0  0
   15.3788   -0.5703   -7.9048 C   0  0  1  0  0  0  0  0  0  0  0  0
   16.2185   -1.1057   -8.9366 O   0  0  0  0  0  0  0  0  0  0  0  0
   15.2522   -1.5463   -6.7444 C   0  0  0  0  0  0  0  0  0  0  0  0
   19.3843   -6.0747   -5.4425 H   0  0  0  0  0  0  0  0  0  0  0  0
   18.4311   -7.2263   -6.3940 H   0  0  0  0  0  0  0  0  0  0  0  0
   18.4727   -7.3703   -4.6178 H   0  0  0  0  0  0  0  0  0  0  0  0
   18.4603   -4.2646   -4.6959 H   0  0  0  0  0  0  0  0  0  0  0  0
   15.6760   -3.7141   -5.4052 H   0  0  0  0  0  0  0  0  0  0  0  0
   14.9915   -4.8284   -1.8117 H   0  0  0  0  0  0  0  0  0  0  0  0
   16.3016   -5.5503   -2.7260 H   0  0  0  0  0  0  0  0  0  0  0  0
   14.7246   -5.2932   -3.4834 H   0  0  0  0  0  0  0  0  0  0  0  0
   16.5312   -2.9962   -1.2221 H   0  0  0  0  0  0  0  0  0  0  0  0
   17.1826   -1.8915   -2.4211 H   0  0  0  0  0  0  0  0  0  0  0  0
   17.8412   -3.5182   -2.2700 H   0  0  0  0  0  0  0  0  0  0  0  0
   14.8834   -1.5232   -3.4444 H   0  0  0  0  0  0  0  0  0  0  0  0
   14.1880   -2.5765   -2.2124 H   0  0  0  0  0  0  0  0  0  0  0  0
   13.8869   -2.8834   -3.9224 H   0  0  0  0  0  0  0  0  0  0  0  0
   17.9427   -0.0050   -6.5058 H   0  0  0  0  0  0  0  0  0  0  0  0
   15.0054    0.3504   -4.4666 H   0  0  0  0  0  0  0  0  0  0  0  0
   16.2545    2.7058   -3.0761 H   0  0  0  0  0  0  0  0  0  0  0  0
   14.5598    2.5951   -3.5410 H   0  0  0  0  0  0  0  0  0  0  0  0
   17.1265    0.6258   -1.6007 H   0  0  0  0  0  0  0  0  0  0  0  0
   16.6619   -0.4668    0.5226 H   0  0  0  0  0  0  0  0  0  0  0  0
   14.9979   -3.9492    1.9571 H   0  0  0  0  0  0  0  0  0  0  0  0
   16.1853   -2.8225    1.3055 H   0  0  0  0  0  0  0  0  0  0  0  0
   14.6421   -3.0782    0.4623 H   0  0  0  0  0  0  0  0  0  0  0  0
   13.2091   -1.1030    5.0863 H   0  0  0  0  0  0  0  0  0  0  0  0
   12.5671    0.7858    0.2649 H   0  0  0  0  0  0  0  0  0  0  0  0
   13.0315    1.8851   -1.8548 H   0  0  0  0  0  0  0  0  0  0  0  0
   15.2383    1.3190   -6.8971 H   0  0  0  0  0  0  0  0  0  0  0  0
   16.6019    1.2345   -8.0162 H   0  0  0  0  0  0  0  0  0  0  0  0
   14.4100   -0.3364   -8.3453 H   0  0  0  0  0  0  0  0  0  0  0  0
   17.1405   -1.0522   -8.6221 H   0  0  0  0  0  0  0  0  0  0  0  0
   15.3036   -2.5841   -7.0820 H   0  0  0  0  0  0  0  0  0  0  0  0
   14.3307   -1.3776   -6.1773 H   0  0  0  0  0  0  0  0  0  0  0  0
  1 34  1  0  0  0  0
  1 35  1  0  0  0  0
  1 36  1  0  0  0  0
  1  2  1  0  0  0  0
  2  3  2  0  0  0  0
  2  4  1  0  0  0  0
  4 37  1  0  0  0  0
  5  4  1  0  0  0  0
  5 38  1  0  0  0  0
  5  6  1  0  0  0  0
  5 10  1  0  0  0  0
  6  7  1  0  0  0  0
  6  8  1  0  0  0  0
  6  9  1  0  0  0  0
  7 39  1  0  0  0  0
  7 40  1  0  0  0  0
  7 41  1  0  0  0  0
  8 42  1  0  0  0  0
  8 43  1  0  0  0  0
  8 44  1  0  0  0  0
  9 45  1  0  0  0  0
  9 46  1  0  0  0  0
  9 47  1  0  0  0  0
 10 11  2  0  0  0  0
 10 12  1  0  0  0  0
 12 33  1  0  0  0  0
 13 12  1  0  0  0  0
 13 30  1  0  0  0  0
 13 48  1  0  0  0  0
 13 14  1  0  0  0  0
 14 15  2  0  0  0  0
 14 16  1  0  0  0  0
 16 49  1  0  0  0  0
 16 17  1  0  0  0  0
 17 50  1  0  0  0  0
 17 51  1  0  0  0  0
 17 18  1  0  0  0  0
 18 19  1  0  0  0  0
 18 29  2  0  0  0  0
 19 52  1  0  0  0  0
 19 20  2  0  0  0  0
 20 53  1  0  0  0  0
 20 21  1  0  0  0  0
 21 28  2  0  0  0  0
 21 22  1  0  0  0  0
 22 23  2  0  0  0  0
 22 27  1  0  0  0  0
 23 24  1  0  0  0  0
 23 25  1  0  0  0  0
 24 54  1  0  0  0  0
 24 55  1  0  0  0  0
 24 56  1  0  0  0  0
 25 26  2  0  0  0  0
 26 57  1  0  0  0  0
 26 27  1  0  0  0  0
 28 58  1  0  0  0  0
 28 29  1  0  0  0  0
 29 59  1  0  0  0  0
 31 30  1  0  0  0  0
 30 60  1  0  0  0  0
 30 61  1  0  0  0  0
 31 33  1  0  0  0  0
 31 62  1  0  0  0  0
 31 32  1  0  0  0  0
 32 63  1  0  0  0  0
 33 64  1  0  0  0  0
 33 65  1  0  0  0  0
M  ZZC   1 c1
M  ZZC   2 c2
M  ZZC   3 o1
M  ZZC   4 n1
M  ZZC   5 c3
M  ZZC   6 c4
M  ZZC   7 c5
M  ZZC   8 c6
M  ZZC   9 c7
M  ZZC  10 c8
M  ZZC  11 o2
M  ZZC  12 n2
M  ZZC  13 c9
M  ZZC  14 c10
M  ZZC  15 o3
M  ZZC  16 n3
M  ZZC  17 c11
M  ZZC  18 c12
M  ZZC  19 c13
M  ZZC  20 c14
M  ZZC  21 c15
M  ZZC  22 c16
M  ZZC  23 c17
M  ZZC  24 c18
M  ZZC  25 n4
M  ZZC  26 c19
M  ZZC  27 s1
M  ZZC  28 c20
M  ZZC  29 c21
M  ZZC  30 c22
M  ZZC  31 c23
M  ZZC  32 o4
M  ZZC  33 c24
M  ZZC  34 h11
M  ZZC  35 h12
M  ZZC  36 h13
M  ZZC  37 h01
M  ZZC  38 h31
M  ZZC  39 h51
M  ZZC  40 h52
M  ZZC  41 h53
M  ZZC  42 h61
M  ZZC  43 h62
M  ZZC  44 h63
M  ZZC  45 h71
M  ZZC  46 h72
M  ZZC  47 h73
M  ZZC  48 h91
M  ZZC  49 h02
M  ZZC  50 h111
M  ZZC  51 h112
M  ZZC  52 h131
M  ZZC  53 h141
M  ZZC  54 h181
M  ZZC  55 h182
M  ZZC  56 h183
M  ZZC  57 h191
M  ZZC  58 h201
M  ZZC  59 h211
M  ZZC  60 h221
M  ZZC  61 h222
M  ZZC  62 h231
M  ZZC  63 h41
M  ZZC  64 h241
M  ZZC  65 h242
M  ZZM   1 1
M  ZZI   1 111
M  ZZM   2 3
M  ZZI   2 121
M  ZZM   3 7
M  ZZI   3 81
M  ZZM   4 10
M  ZZI   4 211
M  ZZM   5 1
M  ZZI   5 113
M  ZZM   6 1
M  ZZI   6 110
M  ZZM   7 1
M  ZZI   7 111
M  ZZM   8 1
M  ZZI   8 111
M  ZZM   9 1
M  ZZI   9 111
M  ZZM  10 3
M  ZZI  10 121
M  ZZM  11 7
M  ZZI  11 81
M  ZZM  12 10
M  ZZI  12 192
M  ZZM  13 1
M  ZZI  13 113
M  ZZM  14 3
M  ZZI  14 121
M  ZZM  15 7
M  ZZI  15 81
M  ZZM  16 10
M  ZZI  16 211
M  ZZM  17 1
M  ZZI  17 112
M  ZZM  18 37
M  ZZI  18 124
M  ZZM  19 37
M  ZZI  19 125
M  ZZM  20 37
M  ZZI  20 125
M  ZZM  21 37
M  ZZI  21 124
M  ZZM  22 63
M  ZZI  22 104
M  ZZM  23 64
M  ZZI  23 105
M  ZZM  24 1
M  ZZI  24 111
M  ZZM  25 66
M  ZZI  25 222
M  ZZM  26 63
M  ZZI  26 104
M  ZZM  27 44
M  ZZI  27 248
M  ZZM  28 37
M  ZZI  28 125
M  ZZM  29 37
M  ZZI  29 125
M  ZZM  30 1
M  ZZI  30 112
M  ZZM  31 1
M  ZZI  31 113
M  ZZM  32 6
M  ZZI  32 60
M  ZZM  33 1
M  ZZI  33 112
M  ZZM  34 5
M  ZZI  34 1
M  ZZM  35 5
M  ZZI  35 1
M  ZZM  36 5
M  ZZI  36 1
M  ZZM  37 28
M  ZZI  37 11
M  ZZM  38 5
M  ZZI  38 1
M  ZZM  39 5
M  ZZI  39 1
M  ZZM  40 5
M  ZZI  40 1
M  ZZM  41 5
M  ZZI  41 1
M  ZZM  42 5
M  ZZI  42 1
M  ZZM  43 5
M  ZZI  43 1
M  ZZM  44 5
M  ZZI  44 1
M  ZZM  45 5
M  ZZI  45 1
M  ZZM  46 5
M  ZZI  46 1
M  ZZM  47 5
M  ZZI  47 1
M  ZZM  48 5
M  ZZI  48 1
M  ZZM  49 28
M  ZZI  49 11
M  ZZM  50 5
M  ZZI  50 1
M  ZZM  51 5
M  ZZI  51 1
M  ZZM  52 5
M  ZZI  52 1
M  ZZM  53 5
M  ZZI  53 1
M  ZZM  54 5
M  ZZI  54 1
M  ZZM  55 5
M  ZZI  55 1
M  ZZM  56 5
M  ZZI  56 1
M  ZZM  57 5
M  ZZI  57 1
M  ZZM  58 5
M  ZZI  58 1
M  ZZM  59 5
M  ZZI  59 1
M  ZZM  60 5
M  ZZI  60 1
M  ZZM  61 5
M  ZZI  61 1
M  ZZM  62 5
M  ZZI  62 1
M  ZZM  63 21
M  ZZI  63 20
M  ZZM  64 5
M  ZZI  64 1
M  ZZM  65 5
M  ZZI  65 1
M  END
> <IX>
1

> <NAME>
VHL_5G0I_16.pdb

> <Score>
-29.177144

> <Natom>
65

> <Nflex>
8

> <Hbond>
-7.81679

> <Hphob>
-6.726746

> <VwInt>
-27.939074

> <Dsolv>
16.082514

> <SolEl>
6.21078

> <Eintl>
3.473879

> <RecConf>
ND

> <projPath>
VHL_maps/

> <NAME_>
VHL_5G0I_16.pdb

$$$$
