VHL_5G0I_3.pdb
  MOLSOFT 04032206393D

 65 67  0  0  1  0  0  0  0  0999 V2000
   18.4015   -6.6594   -5.3007 C   0  0  0  0  0  0  0  0  0  0  0  0
   17.1677   -5.8085   -5.1669 C   0  0  0  0  0  0  0  0  0  0  0  0
   16.0888   -6.2113   -5.5704 O   0  0  0  0  0  0  0  0  0  0  0  0
   17.3825   -4.5957   -4.5368 N   0  0  0  0  0  0  0  0  0  0  0  0
   16.3328   -3.5941   -4.3215 C   0  0  1  0  0  0  0  0  0  0  0  0
   15.6791   -3.6693   -2.9037 C   0  0  0  0  0  0  0  0  0  0  0  0
   14.4591   -2.7356   -2.8505 C   0  0  0  0  0  0  0  0  0  0  0  0
   16.6366   -3.2751   -1.7662 C   0  0  0  0  0  0  0  0  0  0  0  0
   15.1890   -5.0929   -2.6147 C   0  0  0  0  0  0  0  0  0  0  0  0
   16.9244   -2.2004   -4.6047 C   0  0  0  0  0  0  0  0  0  0  0  0
   17.8859   -1.7782   -3.9779 O   0  0  0  0  0  0  0  0  0  0  0  0
   16.3044   -1.4198   -5.5809 N   0  0  0  0  0  0  0  0  0  0  0  0
   16.4900    0.0190   -5.6393 C   0  0  2  0  0  0  0  0  0  0  0  0
   15.4082    0.7015   -4.7929 C   0  0  0  0  0  0  0  0  0  0  0  0
   14.2162    0.4479   -4.9104 O   0  0  0  0  0  0  0  0  0  0  0  0
   15.9003    1.6637   -3.9316 N   0  0  0  0  0  0  0  0  0  0  0  0
   15.0237    2.5694   -3.2132 C   0  0  0  0  0  0  0  0  0  0  0  0
   14.7457    3.8427   -3.9769 C   0  0  0  0  0  0  0  0  0  0  0  0
   13.7904    4.7387   -3.5059 C   0  0  0  0  0  0  0  0  0  0  0  0
   13.5246    5.9201   -4.1819 C   0  0  0  0  0  0  0  0  0  0  0  0
   14.2090    6.2379   -5.3521 C   0  0  0  0  0  0  0  0  0  0  0  0
   13.9566    7.4719   -6.0823 C   0  0  0  0  0  0  0  0  0  0  0  0
   13.6573    7.6866   -7.4228 C   0  0  0  0  0  0  0  0  0  0  0  0
   13.4569    6.6621   -8.4750 C   0  0  0  0  0  0  0  0  0  0  0  0
   13.5613    9.0118   -7.7910 N   0  0  0  0  0  0  0  0  0  0  0  0
   13.7887    9.7788   -6.7485 C   0  0  0  0  0  0  0  0  0  0  0  0
   14.0818    8.9818   -5.2706 S   0  0  0  0  0  0  0  0  0  0  0  0
   15.1682    5.3492   -5.8179 C   0  0  0  0  0  0  0  0  0  0  0  0
   15.4368    4.1766   -5.1407 C   0  0  0  0  0  0  0  0  0  0  0  0
   16.2947    0.3926   -7.1002 C   0  0  0  0  0  0  0  0  0  0  0  0
   15.5260   -0.7701   -7.7257 C   0  0  1  0  0  0  0  0  0  0  0  0
   16.2080   -1.2170   -8.9038 O   0  0  0  0  0  0  0  0  0  0  0  0
   15.4711   -1.8758   -6.6711 C   0  0  0  0  0  0  0  0  0  0  0  0
   19.3130   -6.0596   -5.2301 H   0  0  0  0  0  0  0  0  0  0  0  0
   18.3937   -7.1544   -6.2761 H   0  0  0  0  0  0  0  0  0  0  0  0
   18.3967   -7.4169   -4.5133 H   0  0  0  0  0  0  0  0  0  0  0  0
   18.3131   -4.3901   -4.1957 H   0  0  0  0  0  0  0  0  0  0  0  0
   15.5534   -3.7959   -5.0485 H   0  0  0  0  0  0  0  0  0  0  0  0
   14.7476   -1.6901   -2.9971 H   0  0  0  0  0  0  0  0  0  0  0  0
   13.9462   -2.8019   -1.8855 H   0  0  0  0  0  0  0  0  0  0  0  0
   13.7288   -2.9718   -3.6289 H   0  0  0  0  0  0  0  0  0  0  0  0
   16.1909   -3.4733   -0.7858 H   0  0  0  0  0  0  0  0  0  0  0  0
   16.8839   -2.2103   -1.7811 H   0  0  0  0  0  0  0  0  0  0  0  0
   17.5719   -3.8352   -1.8136 H   0  0  0  0  0  0  0  0  0  0  0  0
   14.6754   -5.1527   -1.6520 H   0  0  0  0  0  0  0  0  0  0  0  0
   16.0117   -5.8115   -2.5789 H   0  0  0  0  0  0  0  0  0  0  0  0
   14.4842   -5.4257   -3.3762 H   0  0  0  0  0  0  0  0  0  0  0  0
   17.4861    0.2990   -5.2778 H   0  0  0  0  0  0  0  0  0  0  0  0
   16.9011    1.7932   -3.8293 H   0  0  0  0  0  0  0  0  0  0  0  0
   14.0818    2.0540   -2.9938 H   0  0  0  0  0  0  0  0  0  0  0  0
   15.5181    2.8106   -2.2666 H   0  0  0  0  0  0  0  0  0  0  0  0
   13.2367    4.5162   -2.5979 H   0  0  0  0  0  0  0  0  0  0  0  0
   12.7623    6.5882   -3.7915 H   0  0  0  0  0  0  0  0  0  0  0  0
   14.4094    6.2167   -8.7736 H   0  0  0  0  0  0  0  0  0  0  0  0
   13.0020    7.0970   -9.3688 H   0  0  0  0  0  0  0  0  0  0  0  0
   12.8103    5.8564   -8.1163 H   0  0  0  0  0  0  0  0  0  0  0  0
   13.7937   10.8571   -6.8091 H   0  0  0  0  0  0  0  0  0  0  0  0
   15.7346    5.5719   -6.7173 H   0  0  0  0  0  0  0  0  0  0  0  0
   16.2042    3.5254   -5.5450 H   0  0  0  0  0  0  0  0  0  0  0  0
   15.7511    1.3356   -7.2226 H   0  0  0  0  0  0  0  0  0  0  0  0
   17.2675    0.5338   -7.5829 H   0  0  0  0  0  0  0  0  0  0  0  0
   14.5164   -0.4702   -8.0189 H   0  0  0  0  0  0  0  0  0  0  0  0
   17.1622   -1.1888   -8.7050 H   0  0  0  0  0  0  0  0  0  0  0  0
   15.8149   -2.8460   -7.0405 H   0  0  0  0  0  0  0  0  0  0  0  0
   14.4570   -1.9811   -6.2738 H   0  0  0  0  0  0  0  0  0  0  0  0
  1 34  1  0  0  0  0
  1 35  1  0  0  0  0
  1 36  1  0  0  0  0
  1  2  1  0  0  0  0
  2  3  2  0  0  0  0
  2  4  1  0  0  0  0
  4 37  1  0  0  0  0
  5  4  1  0  0  0  0
  5 38  1  0  0  0  0
  5  6  1  0  0  0  0
  5 10  1  0  0  0  0
  6  7  1  0  0  0  0
  6  8  1  0  0  0  0
  6  9  1  0  0  0  0
  7 39  1  0  0  0  0
  7 40  1  0  0  0  0
  7 41  1  0  0  0  0
  8 42  1  0  0  0  0
  8 43  1  0  0  0  0
  8 44  1  0  0  0  0
  9 45  1  0  0  0  0
  9 46  1  0  0  0  0
  9 47  1  0  0  0  0
 10 11  2  0  0  0  0
 10 12  1  0  0  0  0
 12 33  1  0  0  0  0
 13 12  1  0  0  0  0
 13 30  1  0  0  0  0
 13 48  1  0  0  0  0
 13 14  1  0  0  0  0
 14 15  2  0  0  0  0
 14 16  1  0  0  0  0
 16 49  1  0  0  0  0
 16 17  1  0  0  0  0
 17 50  1  0  0  0  0
 17 51  1  0  0  0  0
 17 18  1  0  0  0  0
 18 19  1  0  0  0  0
 18 29  2  0  0  0  0
 19 52  1  0  0  0  0
 19 20  2  0  0  0  0
 20 53  1  0  0  0  0
 20 21  1  0  0  0  0
 21 28  2  0  0  0  0
 21 22  1  0  0  0  0
 22 23  2  0  0  0  0
 22 27  1  0  0  0  0
 23 24  1  0  0  0  0
 23 25  1  0  0  0  0
 24 54  1  0  0  0  0
 24 55  1  0  0  0  0
 24 56  1  0  0  0  0
 25 26  2  0  0  0  0
 26 57  1  0  0  0  0
 26 27  1  0  0  0  0
 28 58  1  0  0  0  0
 28 29  1  0  0  0  0
 29 59  1  0  0  0  0
 31 30  1  0  0  0  0
 30 60  1  0  0  0  0
 30 61  1  0  0  0  0
 31 33  1  0  0  0  0
 31 62  1  0  0  0  0
 31 32  1  0  0  0  0
 32 63  1  0  0  0  0
 33 64  1  0  0  0  0
 33 65  1  0  0  0  0
M  ZZC   1 c1
M  ZZC   2 c2
M  ZZC   3 o1
M  ZZC   4 n1
M  ZZC   5 c3
M  ZZC   6 c4
M  ZZC   7 c5
M  ZZC   8 c6
M  ZZC   9 c7
M  ZZC  10 c8
M  ZZC  11 o2
M  ZZC  12 n2
M  ZZC  13 c9
M  ZZC  14 c10
M  ZZC  15 o3
M  ZZC  16 n3
M  ZZC  17 c11
M  ZZC  18 c12
M  ZZC  19 c13
M  ZZC  20 c14
M  ZZC  21 c15
M  ZZC  22 c16
M  ZZC  23 c17
M  ZZC  24 c18
M  ZZC  25 n4
M  ZZC  26 c19
M  ZZC  27 s1
M  ZZC  28 c20
M  ZZC  29 c21
M  ZZC  30 c22
M  ZZC  31 c23
M  ZZC  32 o4
M  ZZC  33 c24
M  ZZC  34 h11
M  ZZC  35 h12
M  ZZC  36 h13
M  ZZC  37 h01
M  ZZC  38 h31
M  ZZC  39 h51
M  ZZC  40 h52
M  ZZC  41 h53
M  ZZC  42 h61
M  ZZC  43 h62
M  ZZC  44 h63
M  ZZC  45 h71
M  ZZC  46 h72
M  ZZC  47 h73
M  ZZC  48 h91
M  ZZC  49 h02
M  ZZC  50 h111
M  ZZC  51 h112
M  ZZC  52 h131
M  ZZC  53 h141
M  ZZC  54 h181
M  ZZC  55 h182
M  ZZC  56 h183
M  ZZC  57 h191
M  ZZC  58 h201
M  ZZC  59 h211
M  ZZC  60 h221
M  ZZC  61 h222
M  ZZC  62 h231
M  ZZC  63 h41
M  ZZC  64 h241
M  ZZC  65 h242
M  ZZM   1 1
M  ZZI   1 111
M  ZZM   2 3
M  ZZI   2 121
M  ZZM   3 7
M  ZZI   3 81
M  ZZM   4 10
M  ZZI   4 211
M  ZZM   5 1
M  ZZI   5 113
M  ZZM   6 1
M  ZZI   6 110
M  ZZM   7 1
M  ZZI   7 111
M  ZZM   8 1
M  ZZI   8 111
M  ZZM   9 1
M  ZZI   9 111
M  ZZM  10 3
M  ZZI  10 121
M  ZZM  11 7
M  ZZI  11 81
M  ZZM  12 10
M  ZZI  12 192
M  ZZM  13 1
M  ZZI  13 113
M  ZZM  14 3
M  ZZI  14 121
M  ZZM  15 7
M  ZZI  15 81
M  ZZM  16 10
M  ZZI  16 211
M  ZZM  17 1
M  ZZI  17 112
M  ZZM  18 37
M  ZZI  18 124
M  ZZM  19 37
M  ZZI  19 125
M  ZZM  20 37
M  ZZI  20 125
M  ZZM  21 37
M  ZZI  21 124
M  ZZM  22 63
M  ZZI  22 104
M  ZZM  23 64
M  ZZI  23 105
M  ZZM  24 1
M  ZZI  24 111
M  ZZM  25 66
M  ZZI  25 222
M  ZZM  26 63
M  ZZI  26 104
M  ZZM  27 44
M  ZZI  27 248
M  ZZM  28 37
M  ZZI  28 125
M  ZZM  29 37
M  ZZI  29 125
M  ZZM  30 1
M  ZZI  30 112
M  ZZM  31 1
M  ZZI  31 113
M  ZZM  32 6
M  ZZI  32 60
M  ZZM  33 1
M  ZZI  33 112
M  ZZM  34 5
M  ZZI  34 1
M  ZZM  35 5
M  ZZI  35 1
M  ZZM  36 5
M  ZZI  36 1
M  ZZM  37 28
M  ZZI  37 11
M  ZZM  38 5
M  ZZI  38 1
M  ZZM  39 5
M  ZZI  39 1
M  ZZM  40 5
M  ZZI  40 1
M  ZZM  41 5
M  ZZI  41 1
M  ZZM  42 5
M  ZZI  42 1
M  ZZM  43 5
M  ZZI  43 1
M  ZZM  44 5
M  ZZI  44 1
M  ZZM  45 5
M  ZZI  45 1
M  ZZM  46 5
M  ZZI  46 1
M  ZZM  47 5
M  ZZI  47 1
M  ZZM  48 5
M  ZZI  48 1
M  ZZM  49 28
M  ZZI  49 11
M  ZZM  50 5
M  ZZI  50 1
M  ZZM  51 5
M  ZZI  51 1
M  ZZM  52 5
M  ZZI  52 1
M  ZZM  53 5
M  ZZI  53 1
M  ZZM  54 5
M  ZZI  54 1
M  ZZM  55 5
M  ZZI  55 1
M  ZZM  56 5
M  ZZI  56 1
M  ZZM  57 5
M  ZZI  57 1
M  ZZM  58 5
M  ZZI  58 1
M  ZZM  59 5
M  ZZI  59 1
M  ZZM  60 5
M  ZZI  60 1
M  ZZM  61 5
M  ZZI  61 1
M  ZZM  62 5
M  ZZI  62 1
M  ZZM  63 21
M  ZZI  63 20
M  ZZM  64 5
M  ZZI  64 1
M  ZZM  65 5
M  ZZI  65 1
M  END
> <IX>
1

> <NAME>
VHL_5G0I_3.pdb

> <Score>
-20.686657

> <Natom>
65

> <Nflex>
8

> <Hbond>
-6.988451

> <Hphob>
-6.782101

> <VwInt>
-30.197655

> <Dsolv>
20.016549

> <SolEl>
9.011797

> <Eintl>
9.959313

> <RecConf>
ND

> <projPath>
VHL_maps/

> <NAME_>
VHL_5G0I_3.pdb

$$$$
