VHL_6NY4_5.pdb
  MOLSOFT 04032206433D

 65 67  0  0  1  0  0  0  0  0999 V2000
   13.1627    3.5065   -9.3183 C   0  0  0  0  0  0  0  0  0  0  0  0
   14.2628    3.1943   -8.3467 C   0  0  0  0  0  0  0  0  0  0  0  0
   15.3856    3.6590   -8.4814 O   0  0  0  0  0  0  0  0  0  0  0  0
   13.8831    2.3318   -7.3382 N   0  0  0  0  0  0  0  0  0  0  0  0
   14.8001    1.9260   -6.2697 C   0  0  2  0  0  0  0  0  0  0  0  0
   15.4796    0.5501   -6.5411 C   0  0  0  0  0  0  0  0  0  0  0  0
   16.4453    0.2471   -5.3876 C   0  0  0  0  0  0  0  0  0  0  0  0
   16.3117    0.6091   -7.8317 C   0  0  0  0  0  0  0  0  0  0  0  0
   14.4806   -0.6104   -6.6973 C   0  0  0  0  0  0  0  0  0  0  0  0
   13.9740    1.9719   -4.9662 C   0  0  0  0  0  0  0  0  0  0  0  0
   13.0757    1.1659   -4.7705 O   0  0  0  0  0  0  0  0  0  0  0  0
   14.2373    2.9999   -4.0499 N   0  0  0  0  0  0  0  0  0  0  0  0
   13.3486    3.2626   -2.9094 C   0  0  1  0  0  0  0  0  0  0  0  0
   13.1343    2.1673   -1.8622 C   0  0  0  0  0  0  0  0  0  0  0  0
   12.1663    2.1964   -1.1143 O   0  0  0  0  0  0  0  0  0  0  0  0
   14.1555    1.2483   -1.7526 N   0  0  0  0  0  0  0  0  0  0  0  0
   14.0877    0.1206   -0.8427 C   0  0  0  0  0  0  0  0  0  0  0  0
   14.6230   -1.1225   -1.4999 C   0  0  0  0  0  0  0  0  0  0  0  0
   15.7359   -1.7856   -0.9931 C   0  0  0  0  0  0  0  0  0  0  0  0
   16.2598   -2.8856   -1.6508 C   0  0  0  0  0  0  0  0  0  0  0  0
   15.6785   -3.3457   -2.8261 C   0  0  0  0  0  0  0  0  0  0  0  0
   16.2579   -4.4566   -3.5539 C   0  0  0  0  0  0  0  0  0  0  0  0
   17.0773   -4.4814   -4.6695 C   0  0  0  0  0  0  0  0  0  0  0  0
   17.6081   -3.3146   -5.3869 C   0  0  0  0  0  0  0  0  0  0  0  0
   17.4250   -5.7339   -5.1289 N   0  0  0  0  0  0  0  0  0  0  0  0
   16.9196   -6.6380   -4.3261 C   0  0  0  0  0  0  0  0  0  0  0  0
   15.9537   -6.0496   -3.0387 S   0  0  0  0  0  0  0  0  0  0  0  0
   14.5465   -2.7094   -3.3141 C   0  0  0  0  0  0  0  0  0  0  0  0
   14.0238   -1.6138   -2.6539 C   0  0  0  0  0  0  0  0  0  0  0  0
   13.9455    4.4903   -2.2367 C   0  0  0  0  0  0  0  0  0  0  0  0
   14.5924    5.2387   -3.3825 C   0  0  2  0  0  0  0  0  0  0  0  0
   13.6092    6.0275   -4.0673 O   0  0  0  0  0  0  0  0  0  0  0  0
   15.1304    4.1271   -4.2731 C   0  0  0  0  0  0  0  0  0  0  0  0
   12.1984    3.1204   -8.9828 H   0  0  0  0  0  0  0  0  0  0  0  0
   13.4017    3.0598  -10.2855 H   0  0  0  0  0  0  0  0  0  0  0  0
   13.0866    4.5916   -9.4214 H   0  0  0  0  0  0  0  0  0  0  0  0
   12.9308    1.9738   -7.3248 H   0  0  0  0  0  0  0  0  0  0  0  0
   15.5985    2.6696   -6.2245 H   0  0  0  0  0  0  0  0  0  0  0  0
   17.0535   -0.6311   -5.6045 H   0  0  0  0  0  0  0  0  0  0  0  0
   15.9190    0.0602   -4.4478 H   0  0  0  0  0  0  0  0  0  0  0  0
   17.1403    1.0760   -5.2174 H   0  0  0  0  0  0  0  0  0  0  0  0
   15.6894    0.7701   -8.7155 H   0  0  0  0  0  0  0  0  0  0  0  0
   16.8543   -0.3263   -8.0022 H   0  0  0  0  0  0  0  0  0  0  0  0
   17.0536    1.4118   -7.7895 H   0  0  0  0  0  0  0  0  0  0  0  0
   13.9558   -0.8386   -5.7676 H   0  0  0  0  0  0  0  0  0  0  0  0
   14.9887   -1.5320   -6.9994 H   0  0  0  0  0  0  0  0  0  0  0  0
   13.7246   -0.3963   -7.4585 H   0  0  0  0  0  0  0  0  0  0  0  0
   12.3746    3.5061   -3.3294 H   0  0  0  0  0  0  0  0  0  0  0  0
   14.9652    1.3388   -2.3564 H   0  0  0  0  0  0  0  0  0  0  0  0
   14.6794    0.3855    0.0394 H   0  0  0  0  0  0  0  0  0  0  0  0
   13.0573   -0.0468   -0.5105 H   0  0  0  0  0  0  0  0  0  0  0  0
   16.2220   -1.4338   -0.0879 H   0  0  0  0  0  0  0  0  0  0  0  0
   17.1444   -3.3708   -1.2485 H   0  0  0  0  0  0  0  0  0  0  0  0
   16.8743   -2.9467   -6.1082 H   0  0  0  0  0  0  0  0  0  0  0  0
   18.5219   -3.5871   -5.9177 H   0  0  0  0  0  0  0  0  0  0  0  0
   17.8636   -2.5113   -4.6914 H   0  0  0  0  0  0  0  0  0  0  0  0
   17.0955   -7.6948   -4.4717 H   0  0  0  0  0  0  0  0  0  0  0  0
   14.0697   -3.0550   -4.2264 H   0  0  0  0  0  0  0  0  0  0  0  0
   13.1539   -1.1148   -3.0688 H   0  0  0  0  0  0  0  0  0  0  0  0
   13.1786    5.0781   -1.7220 H   0  0  0  0  0  0  0  0  0  0  0  0
   14.7044    4.1998   -1.5008 H   0  0  0  0  0  0  0  0  0  0  0  0
   15.3806    5.9186   -3.0454 H   0  0  0  0  0  0  0  0  0  0  0  0
   13.0287    5.4439   -4.5915 H   0  0  0  0  0  0  0  0  0  0  0  0
   16.1333    3.8117   -3.9657 H   0  0  0  0  0  0  0  0  0  0  0  0
   15.1388    4.4275   -5.3248 H   0  0  0  0  0  0  0  0  0  0  0  0
  1 34  1  0  0  0  0
  1 35  1  0  0  0  0
  1 36  1  0  0  0  0
  1  2  1  0  0  0  0
  2  3  2  0  0  0  0
  2  4  1  0  0  0  0
  4 37  1  0  0  0  0
  5  4  1  0  0  0  0
  5 38  1  0  0  0  0
  5  6  1  0  0  0  0
  5 10  1  0  0  0  0
  6  7  1  0  0  0  0
  6  8  1  0  0  0  0
  6  9  1  0  0  0  0
  7 39  1  0  0  0  0
  7 40  1  0  0  0  0
  7 41  1  0  0  0  0
  8 42  1  0  0  0  0
  8 43  1  0  0  0  0
  8 44  1  0  0  0  0
  9 45  1  0  0  0  0
  9 46  1  0  0  0  0
  9 47  1  0  0  0  0
 10 11  2  0  0  0  0
 10 12  1  0  0  0  0
 12 33  1  0  0  0  0
 13 12  1  0  0  0  0
 13 30  1  0  0  0  0
 13 48  1  0  0  0  0
 13 14  1  0  0  0  0
 14 15  2  0  0  0  0
 14 16  1  0  0  0  0
 16 49  1  0  0  0  0
 16 17  1  0  0  0  0
 17 50  1  0  0  0  0
 17 51  1  0  0  0  0
 17 18  1  0  0  0  0
 18 19  1  0  0  0  0
 18 29  2  0  0  0  0
 19 52  1  0  0  0  0
 19 20  2  0  0  0  0
 20 53  1  0  0  0  0
 20 21  1  0  0  0  0
 21 28  2  0  0  0  0
 21 22  1  0  0  0  0
 22 23  2  0  0  0  0
 22 27  1  0  0  0  0
 23 24  1  0  0  0  0
 23 25  1  0  0  0  0
 24 54  1  0  0  0  0
 24 55  1  0  0  0  0
 24 56  1  0  0  0  0
 25 26  2  0  0  0  0
 26 57  1  0  0  0  0
 26 27  1  0  0  0  0
 28 58  1  0  0  0  0
 28 29  1  0  0  0  0
 29 59  1  0  0  0  0
 31 30  1  0  0  0  0
 30 60  1  0  0  0  0
 30 61  1  0  0  0  0
 31 33  1  0  0  0  0
 31 62  1  0  0  0  0
 31 32  1  0  0  0  0
 32 63  1  0  0  0  0
 33 64  1  0  0  0  0
 33 65  1  0  0  0  0
M  ZZC   1 c1
M  ZZC   2 c2
M  ZZC   3 o1
M  ZZC   4 n1
M  ZZC   5 c3
M  ZZC   6 c4
M  ZZC   7 c5
M  ZZC   8 c6
M  ZZC   9 c7
M  ZZC  10 c8
M  ZZC  11 o2
M  ZZC  12 n2
M  ZZC  13 c9
M  ZZC  14 c10
M  ZZC  15 o3
M  ZZC  16 n3
M  ZZC  17 c11
M  ZZC  18 c12
M  ZZC  19 c13
M  ZZC  20 c14
M  ZZC  21 c15
M  ZZC  22 c16
M  ZZC  23 c17
M  ZZC  24 c18
M  ZZC  25 n4
M  ZZC  26 c19
M  ZZC  27 s1
M  ZZC  28 c20
M  ZZC  29 c21
M  ZZC  30 c22
M  ZZC  31 c23
M  ZZC  32 o4
M  ZZC  33 c24
M  ZZC  34 h11
M  ZZC  35 h12
M  ZZC  36 h13
M  ZZC  37 h01
M  ZZC  38 h31
M  ZZC  39 h51
M  ZZC  40 h52
M  ZZC  41 h53
M  ZZC  42 h61
M  ZZC  43 h62
M  ZZC  44 h63
M  ZZC  45 h71
M  ZZC  46 h72
M  ZZC  47 h73
M  ZZC  48 h91
M  ZZC  49 h02
M  ZZC  50 h111
M  ZZC  51 h112
M  ZZC  52 h131
M  ZZC  53 h141
M  ZZC  54 h181
M  ZZC  55 h182
M  ZZC  56 h183
M  ZZC  57 h191
M  ZZC  58 h201
M  ZZC  59 h211
M  ZZC  60 h221
M  ZZC  61 h222
M  ZZC  62 h231
M  ZZC  63 h41
M  ZZC  64 h241
M  ZZC  65 h242
M  ZZM   1 1
M  ZZI   1 111
M  ZZM   2 3
M  ZZI   2 121
M  ZZM   3 7
M  ZZI   3 81
M  ZZM   4 10
M  ZZI   4 211
M  ZZM   5 1
M  ZZI   5 113
M  ZZM   6 1
M  ZZI   6 110
M  ZZM   7 1
M  ZZI   7 111
M  ZZM   8 1
M  ZZI   8 111
M  ZZM   9 1
M  ZZI   9 111
M  ZZM  10 3
M  ZZI  10 121
M  ZZM  11 7
M  ZZI  11 81
M  ZZM  12 10
M  ZZI  12 192
M  ZZM  13 1
M  ZZI  13 113
M  ZZM  14 3
M  ZZI  14 121
M  ZZM  15 7
M  ZZI  15 81
M  ZZM  16 10
M  ZZI  16 211
M  ZZM  17 1
M  ZZI  17 112
M  ZZM  18 37
M  ZZI  18 124
M  ZZM  19 37
M  ZZI  19 125
M  ZZM  20 37
M  ZZI  20 125
M  ZZM  21 37
M  ZZI  21 124
M  ZZM  22 63
M  ZZI  22 104
M  ZZM  23 64
M  ZZI  23 105
M  ZZM  24 1
M  ZZI  24 111
M  ZZM  25 66
M  ZZI  25 222
M  ZZM  26 63
M  ZZI  26 104
M  ZZM  27 44
M  ZZI  27 248
M  ZZM  28 37
M  ZZI  28 125
M  ZZM  29 37
M  ZZI  29 125
M  ZZM  30 1
M  ZZI  30 112
M  ZZM  31 1
M  ZZI  31 113
M  ZZM  32 6
M  ZZI  32 60
M  ZZM  33 1
M  ZZI  33 112
M  ZZM  34 5
M  ZZI  34 1
M  ZZM  35 5
M  ZZI  35 1
M  ZZM  36 5
M  ZZI  36 1
M  ZZM  37 28
M  ZZI  37 11
M  ZZM  38 5
M  ZZI  38 1
M  ZZM  39 5
M  ZZI  39 1
M  ZZM  40 5
M  ZZI  40 1
M  ZZM  41 5
M  ZZI  41 1
M  ZZM  42 5
M  ZZI  42 1
M  ZZM  43 5
M  ZZI  43 1
M  ZZM  44 5
M  ZZI  44 1
M  ZZM  45 5
M  ZZI  45 1
M  ZZM  46 5
M  ZZI  46 1
M  ZZM  47 5
M  ZZI  47 1
M  ZZM  48 5
M  ZZI  48 1
M  ZZM  49 28
M  ZZI  49 11
M  ZZM  50 5
M  ZZI  50 1
M  ZZM  51 5
M  ZZI  51 1
M  ZZM  52 5
M  ZZI  52 1
M  ZZM  53 5
M  ZZI  53 1
M  ZZM  54 5
M  ZZI  54 1
M  ZZM  55 5
M  ZZI  55 1
M  ZZM  56 5
M  ZZI  56 1
M  ZZM  57 5
M  ZZI  57 1
M  ZZM  58 5
M  ZZI  58 1
M  ZZM  59 5
M  ZZI  59 1
M  ZZM  60 5
M  ZZI  60 1
M  ZZM  61 5
M  ZZI  61 1
M  ZZM  62 5
M  ZZI  62 1
M  ZZM  63 21
M  ZZI  63 20
M  ZZM  64 5
M  ZZI  64 1
M  ZZM  65 5
M  ZZI  65 1
M  END
> <IX>
1

> <NAME>
VHL_6NY4_5.pdb

> <Score>
-13.517731

> <Natom>
65

> <Nflex>
8

> <Hbond>
-4.113922

> <Hphob>
-7.266898

> <VwInt>
-27.559322

> <Dsolv>
18.011168

> <SolEl>
13.399655

> <Eintl>
3.610812

> <RecConf>
ND

> <projPath>
VHL_maps/

> <NAME_>
VHL_6NY4_5.pdb

$$$$
