VHL_5G0J_3.pdb
  MOLSOFT 04032206413D

 65 67  0  0  1  0  0  0  0  0999 V2000
   18.3168   -6.7666   -5.2894 C   0  0  0  0  0  0  0  0  0  0  0  0
   17.1331   -5.8400   -5.2181 C   0  0  0  0  0  0  0  0  0  0  0  0
   16.0214   -6.2205   -5.5466 O   0  0  0  0  0  0  0  0  0  0  0  0
   17.4362   -4.5820   -4.7325 N   0  0  0  0  0  0  0  0  0  0  0  0
   16.4632   -3.4919   -4.5873 C   0  0  1  0  0  0  0  0  0  0  0  0
   15.9038   -3.3577   -3.1358 C   0  0  0  0  0  0  0  0  0  0  0  0
   16.9685   -2.8532   -2.1495 C   0  0  0  0  0  0  0  0  0  0  0  0
   14.7158   -2.3829   -3.1089 C   0  0  0  0  0  0  0  0  0  0  0  0
   15.3889   -4.7152   -2.6276 C   0  0  0  0  0  0  0  0  0  0  0  0
   17.1504   -2.2115   -5.1117 C   0  0  0  0  0  0  0  0  0  0  0  0
   18.3288   -1.9898   -4.8731 O   0  0  0  0  0  0  0  0  0  0  0  0
   16.3824   -1.2840   -5.8218 N   0  0  0  0  0  0  0  0  0  0  0  0
   16.9636   -0.0257   -6.2917 C   0  0  2  0  0  0  0  0  0  0  0  0
   17.4114    0.9934   -5.2434 C   0  0  0  0  0  0  0  0  0  0  0  0
   17.3105    0.8268   -4.0362 O   0  0  0  0  0  0  0  0  0  0  0  0
   18.0134    2.0912   -5.8329 N   0  0  0  0  0  0  0  0  0  0  0  0
   18.8532    3.0329   -5.1244 C   0  0  0  0  0  0  0  0  0  0  0  0
   20.1508    3.2627   -5.8642 C   0  0  0  0  0  0  0  0  0  0  0  0
   20.6449    2.3300   -6.7732 C   0  0  0  0  0  0  0  0  0  0  0  0
   21.8454    2.5330   -7.4184 C   0  0  0  0  0  0  0  0  0  0  0  0
   22.6114    3.6653   -7.1820 C   0  0  0  0  0  0  0  0  0  0  0  0
   23.8955    3.8358   -7.8532 C   0  0  0  0  0  0  0  0  0  0  0  0
   25.1606    4.1069   -7.3454 C   0  0  0  0  0  0  0  0  0  0  0  0
   25.5366    4.3101   -5.9271 C   0  0  0  0  0  0  0  0  0  0  0  0
   26.1669    4.1720   -8.2877 N   0  0  0  0  0  0  0  0  0  0  0  0
   25.6720    3.9562   -9.4847 C   0  0  0  0  0  0  0  0  0  0  0  0
   23.9925    3.6772   -9.5654 S   0  0  0  0  0  0  0  0  0  0  0  0
   22.1296    4.5968   -6.2676 C   0  0  0  0  0  0  0  0  0  0  0  0
   20.9187    4.3971   -5.6187 C   0  0  0  0  0  0  0  0  0  0  0  0
   15.9054    0.5689   -7.2144 C   0  0  0  0  0  0  0  0  0  0  0  0
   15.2154   -0.6559   -7.7650 C   0  0  1  0  0  0  0  0  0  0  0  0
   15.9946   -1.2083   -8.8399 O   0  0  0  0  0  0  0  0  0  0  0  0
   15.1853   -1.6034   -6.5761 C   0  0  0  0  0  0  0  0  0  0  0  0
   19.2607   -6.2136   -5.2941 H   0  0  0  0  0  0  0  0  0  0  0  0
   18.2587   -7.3539   -6.2103 H   0  0  0  0  0  0  0  0  0  0  0  0
   18.2922   -7.4406   -4.4299 H   0  0  0  0  0  0  0  0  0  0  0  0
   18.3979   -4.3865   -4.4796 H   0  0  0  0  0  0  0  0  0  0  0  0
   15.6342   -3.7357   -5.2391 H   0  0  0  0  0  0  0  0  0  0  0  0
   16.5838   -2.8336   -1.1247 H   0  0  0  0  0  0  0  0  0  0  0  0
   17.2992   -1.8373   -2.3851 H   0  0  0  0  0  0  0  0  0  0  0  0
   17.8514   -3.4952   -2.1492 H   0  0  0  0  0  0  0  0  0  0  0  0
   15.0216   -1.3704   -3.3924 H   0  0  0  0  0  0  0  0  0  0  0  0
   14.2759   -2.3183   -2.1085 H   0  0  0  0  0  0  0  0  0  0  0  0
   13.9255   -2.6793   -3.8042 H   0  0  0  0  0  0  0  0  0  0  0  0
   14.9262   -4.6253   -1.6399 H   0  0  0  0  0  0  0  0  0  0  0  0
   16.1922   -5.4509   -2.5316 H   0  0  0  0  0  0  0  0  0  0  0  0
   14.6339   -5.1331   -3.2989 H   0  0  0  0  0  0  0  0  0  0  0  0
   17.8554   -0.2855   -6.8640 H   0  0  0  0  0  0  0  0  0  0  0  0
   17.9336    2.2229   -6.8346 H   0  0  0  0  0  0  0  0  0  0  0  0
   18.2865    3.9670   -5.0546 H   0  0  0  0  0  0  0  0  0  0  0  0
   19.0586    2.6646   -4.1135 H   0  0  0  0  0  0  0  0  0  0  0  0
   20.1070    1.4122   -6.9914 H   0  0  0  0  0  0  0  0  0  0  0  0
   22.1892    1.7670   -8.1030 H   0  0  0  0  0  0  0  0  0  0  0  0
   25.3390    5.3416   -5.6228 H   0  0  0  0  0  0  0  0  0  0  0  0
   26.6011    4.1099   -5.7719 H   0  0  0  0  0  0  0  0  0  0  0  0
   24.9773    3.6430   -5.2658 H   0  0  0  0  0  0  0  0  0  0  0  0
   26.2860    3.9554  -10.3740 H   0  0  0  0  0  0  0  0  0  0  0  0
   22.6972    5.4966   -6.0509 H   0  0  0  0  0  0  0  0  0  0  0  0
   20.5759    5.1411   -4.9056 H   0  0  0  0  0  0  0  0  0  0  0  0
   15.1947    1.1832   -6.6489 H   0  0  0  0  0  0  0  0  0  0  0  0
   16.3456    1.1870   -8.0042 H   0  0  0  0  0  0  0  0  0  0  0  0
   14.2139   -0.4324   -8.1342 H   0  0  0  0  0  0  0  0  0  0  0  0
   16.9132   -1.3018   -8.5239 H   0  0  0  0  0  0  0  0  0  0  0  0
   15.1973   -2.6448   -6.9039 H   0  0  0  0  0  0  0  0  0  0  0  0
   14.3214   -1.4121   -5.9313 H   0  0  0  0  0  0  0  0  0  0  0  0
  1 34  1  0  0  0  0
  1 35  1  0  0  0  0
  1 36  1  0  0  0  0
  1  2  1  0  0  0  0
  2  3  2  0  0  0  0
  2  4  1  0  0  0  0
  4 37  1  0  0  0  0
  5  4  1  0  0  0  0
  5 38  1  0  0  0  0
  5  6  1  0  0  0  0
  5 10  1  0  0  0  0
  6  7  1  0  0  0  0
  6  8  1  0  0  0  0
  6  9  1  0  0  0  0
  7 39  1  0  0  0  0
  7 40  1  0  0  0  0
  7 41  1  0  0  0  0
  8 42  1  0  0  0  0
  8 43  1  0  0  0  0
  8 44  1  0  0  0  0
  9 45  1  0  0  0  0
  9 46  1  0  0  0  0
  9 47  1  0  0  0  0
 10 11  2  0  0  0  0
 10 12  1  0  0  0  0
 12 33  1  0  0  0  0
 13 12  1  0  0  0  0
 13 30  1  0  0  0  0
 13 48  1  0  0  0  0
 13 14  1  0  0  0  0
 14 15  2  0  0  0  0
 14 16  1  0  0  0  0
 16 49  1  0  0  0  0
 16 17  1  0  0  0  0
 17 50  1  0  0  0  0
 17 51  1  0  0  0  0
 17 18  1  0  0  0  0
 18 19  1  0  0  0  0
 18 29  2  0  0  0  0
 19 52  1  0  0  0  0
 19 20  2  0  0  0  0
 20 53  1  0  0  0  0
 20 21  1  0  0  0  0
 21 28  2  0  0  0  0
 21 22  1  0  0  0  0
 22 23  2  0  0  0  0
 22 27  1  0  0  0  0
 23 24  1  0  0  0  0
 23 25  1  0  0  0  0
 24 54  1  0  0  0  0
 24 55  1  0  0  0  0
 24 56  1  0  0  0  0
 25 26  2  0  0  0  0
 26 57  1  0  0  0  0
 26 27  1  0  0  0  0
 28 58  1  0  0  0  0
 28 29  1  0  0  0  0
 29 59  1  0  0  0  0
 31 30  1  0  0  0  0
 30 60  1  0  0  0  0
 30 61  1  0  0  0  0
 31 33  1  0  0  0  0
 31 62  1  0  0  0  0
 31 32  1  0  0  0  0
 32 63  1  0  0  0  0
 33 64  1  0  0  0  0
 33 65  1  0  0  0  0
M  ZZC   1 c1
M  ZZC   2 c2
M  ZZC   3 o1
M  ZZC   4 n1
M  ZZC   5 c3
M  ZZC   6 c4
M  ZZC   7 c5
M  ZZC   8 c6
M  ZZC   9 c7
M  ZZC  10 c8
M  ZZC  11 o2
M  ZZC  12 n2
M  ZZC  13 c9
M  ZZC  14 c10
M  ZZC  15 o3
M  ZZC  16 n3
M  ZZC  17 c11
M  ZZC  18 c12
M  ZZC  19 c13
M  ZZC  20 c14
M  ZZC  21 c15
M  ZZC  22 c16
M  ZZC  23 c17
M  ZZC  24 c18
M  ZZC  25 n4
M  ZZC  26 c19
M  ZZC  27 s1
M  ZZC  28 c20
M  ZZC  29 c21
M  ZZC  30 c22
M  ZZC  31 c23
M  ZZC  32 o4
M  ZZC  33 c24
M  ZZC  34 h11
M  ZZC  35 h12
M  ZZC  36 h13
M  ZZC  37 h01
M  ZZC  38 h31
M  ZZC  39 h51
M  ZZC  40 h52
M  ZZC  41 h53
M  ZZC  42 h61
M  ZZC  43 h62
M  ZZC  44 h63
M  ZZC  45 h71
M  ZZC  46 h72
M  ZZC  47 h73
M  ZZC  48 h91
M  ZZC  49 h02
M  ZZC  50 h111
M  ZZC  51 h112
M  ZZC  52 h131
M  ZZC  53 h141
M  ZZC  54 h181
M  ZZC  55 h182
M  ZZC  56 h183
M  ZZC  57 h191
M  ZZC  58 h201
M  ZZC  59 h211
M  ZZC  60 h221
M  ZZC  61 h222
M  ZZC  62 h231
M  ZZC  63 h41
M  ZZC  64 h241
M  ZZC  65 h242
M  ZZM   1 1
M  ZZI   1 111
M  ZZM   2 3
M  ZZI   2 121
M  ZZM   3 7
M  ZZI   3 81
M  ZZM   4 10
M  ZZI   4 211
M  ZZM   5 1
M  ZZI   5 113
M  ZZM   6 1
M  ZZI   6 110
M  ZZM   7 1
M  ZZI   7 111
M  ZZM   8 1
M  ZZI   8 111
M  ZZM   9 1
M  ZZI   9 111
M  ZZM  10 3
M  ZZI  10 121
M  ZZM  11 7
M  ZZI  11 81
M  ZZM  12 10
M  ZZI  12 192
M  ZZM  13 1
M  ZZI  13 113
M  ZZM  14 3
M  ZZI  14 121
M  ZZM  15 7
M  ZZI  15 81
M  ZZM  16 10
M  ZZI  16 211
M  ZZM  17 1
M  ZZI  17 112
M  ZZM  18 37
M  ZZI  18 124
M  ZZM  19 37
M  ZZI  19 125
M  ZZM  20 37
M  ZZI  20 125
M  ZZM  21 37
M  ZZI  21 124
M  ZZM  22 63
M  ZZI  22 104
M  ZZM  23 64
M  ZZI  23 105
M  ZZM  24 1
M  ZZI  24 111
M  ZZM  25 66
M  ZZI  25 222
M  ZZM  26 63
M  ZZI  26 104
M  ZZM  27 44
M  ZZI  27 248
M  ZZM  28 37
M  ZZI  28 125
M  ZZM  29 37
M  ZZI  29 125
M  ZZM  30 1
M  ZZI  30 112
M  ZZM  31 1
M  ZZI  31 113
M  ZZM  32 6
M  ZZI  32 60
M  ZZM  33 1
M  ZZI  33 112
M  ZZM  34 5
M  ZZI  34 1
M  ZZM  35 5
M  ZZI  35 1
M  ZZM  36 5
M  ZZI  36 1
M  ZZM  37 28
M  ZZI  37 11
M  ZZM  38 5
M  ZZI  38 1
M  ZZM  39 5
M  ZZI  39 1
M  ZZM  40 5
M  ZZI  40 1
M  ZZM  41 5
M  ZZI  41 1
M  ZZM  42 5
M  ZZI  42 1
M  ZZM  43 5
M  ZZI  43 1
M  ZZM  44 5
M  ZZI  44 1
M  ZZM  45 5
M  ZZI  45 1
M  ZZM  46 5
M  ZZI  46 1
M  ZZM  47 5
M  ZZI  47 1
M  ZZM  48 5
M  ZZI  48 1
M  ZZM  49 28
M  ZZI  49 11
M  ZZM  50 5
M  ZZI  50 1
M  ZZM  51 5
M  ZZI  51 1
M  ZZM  52 5
M  ZZI  52 1
M  ZZM  53 5
M  ZZI  53 1
M  ZZM  54 5
M  ZZI  54 1
M  ZZM  55 5
M  ZZI  55 1
M  ZZM  56 5
M  ZZI  56 1
M  ZZM  57 5
M  ZZI  57 1
M  ZZM  58 5
M  ZZI  58 1
M  ZZM  59 5
M  ZZI  59 1
M  ZZM  60 5
M  ZZI  60 1
M  ZZM  61 5
M  ZZI  61 1
M  ZZM  62 5
M  ZZI  62 1
M  ZZM  63 21
M  ZZI  63 20
M  ZZM  64 5
M  ZZI  64 1
M  ZZM  65 5
M  ZZI  65 1
M  END
> <IX>
1

> <NAME>
VHL_5G0J_3.pdb

> <Score>
-23.200698

> <Natom>
65

> <Nflex>
8

> <Hbond>
-6.406873

> <Hphob>
-6.253066

> <VwInt>
-31.068067

> <Dsolv>
16.133337

> <SolEl>
8.879354

> <Eintl>
9.176558

> <RecConf>
ND

> <projPath>
VHL_maps/

> <NAME_>
VHL_5G0J_3.pdb

$$$$
