VHL_2GQG_16.pdb
  MOLSOFT 04032206373D

 65 67  0  0  1  0  0  0  0  0999 V2000
   18.3263   -7.0835   -5.3107 C   0  0  0  0  0  0  0  0  0  0  0  0
   17.1724   -6.1201   -5.2849 C   0  0  0  0  0  0  0  0  0  0  0  0
   16.0736   -6.4483   -5.7024 O   0  0  0  0  0  0  0  0  0  0  0  0
   17.4831   -4.8939   -4.7294 N   0  0  0  0  0  0  0  0  0  0  0  0
   16.5342   -3.7805   -4.6301 C   0  0  1  0  0  0  0  0  0  0  0  0
   15.9003   -3.6275   -3.2094 C   0  0  0  0  0  0  0  0  0  0  0  0
   15.3984   -4.9829   -2.6895 C   0  0  0  0  0  0  0  0  0  0  0  0
   14.6882   -2.6839   -3.2602 C   0  0  0  0  0  0  0  0  0  0  0  0
   16.8991   -3.0688   -2.1840 C   0  0  0  0  0  0  0  0  0  0  0  0
   17.2670   -2.5127   -5.1044 C   0  0  0  0  0  0  0  0  0  0  0  0
   18.4279   -2.2970   -4.7878 O   0  0  0  0  0  0  0  0  0  0  0  0
   16.5512   -1.5705   -5.8433 N   0  0  0  0  0  0  0  0  0  0  0  0
   17.1668   -0.3025   -6.2060 C   0  0  2  0  0  0  0  0  0  0  0  0
   17.4807    0.6385   -5.0504 C   0  0  0  0  0  0  0  0  0  0  0  0
   16.8596    0.6439   -3.9962 O   0  0  0  0  0  0  0  0  0  0  0  0
   18.4442    1.5679   -5.4013 N   0  0  0  0  0  0  0  0  0  0  0  0
   18.5220    2.8570   -4.7518 C   0  0  0  0  0  0  0  0  0  0  0  0
   17.5059    3.7557   -5.4050 C   0  0  0  0  0  0  0  0  0  0  0  0
   17.8048    4.4302   -6.5865 C   0  0  0  0  0  0  0  0  0  0  0  0
   16.8061    5.0645   -7.3063 C   0  0  0  0  0  0  0  0  0  0  0  0
   15.4898    5.0154   -6.8642 C   0  0  0  0  0  0  0  0  0  0  0  0
   14.4055    5.5477   -7.6631 C   0  0  0  0  0  0  0  0  0  0  0  0
   13.4490    4.8819   -8.4162 C   0  0  0  0  0  0  0  0  0  0  0  0
   13.3651    3.4231   -8.6651 C   0  0  0  0  0  0  0  0  0  0  0  0
   12.4731    5.6925   -8.9530 N   0  0  0  0  0  0  0  0  0  0  0  0
   12.7491    6.9465   -8.6699 C   0  0  0  0  0  0  0  0  0  0  0  0
   14.1384    7.2393   -7.7298 S   0  0  0  0  0  0  0  0  0  0  0  0
   15.2003    4.3975   -5.6559 C   0  0  0  0  0  0  0  0  0  0  0  0
   16.1994    3.7835   -4.9284 C   0  0  0  0  0  0  0  0  0  0  0  0
   16.1567    0.3808   -7.1241 C   0  0  0  0  0  0  0  0  0  0  0  0
   15.4274   -0.7772   -7.7667 C   0  0  1  0  0  0  0  0  0  0  0  0
   16.1695   -1.2441   -8.9025 O   0  0  0  0  0  0  0  0  0  0  0  0
   15.3834   -1.8298   -6.6647 C   0  0  0  0  0  0  0  0  0  0  0  0
   19.2849   -6.5616   -5.2368 H   0  0  0  0  0  0  0  0  0  0  0  0
   18.3091   -7.6374   -6.2530 H   0  0  0  0  0  0  0  0  0  0  0  0
   18.2224   -7.7820   -4.4777 H   0  0  0  0  0  0  0  0  0  0  0  0
   18.4281   -4.7416   -4.3969 H   0  0  0  0  0  0  0  0  0  0  0  0
   15.7494   -4.0035   -5.3390 H   0  0  0  0  0  0  0  0  0  0  0  0
   14.9104   -4.8841   -1.7150 H   0  0  0  0  0  0  0  0  0  0  0  0
   16.2117   -5.7024   -2.5641 H   0  0  0  0  0  0  0  0  0  0  0  0
   14.6665   -5.4200   -3.3710 H   0  0  0  0  0  0  0  0  0  0  0  0
   14.9822   -1.6703   -3.5519 H   0  0  0  0  0  0  0  0  0  0  0  0
   14.1988   -2.6086   -2.2841 H   0  0  0  0  0  0  0  0  0  0  0  0
   13.9395   -3.0150   -3.9849 H   0  0  0  0  0  0  0  0  0  0  0  0
   16.4738   -3.0476   -1.1797 H   0  0  0  0  0  0  0  0  0  0  0  0
   17.1939   -2.0439   -2.4321 H   0  0  0  0  0  0  0  0  0  0  0  0
   17.8185   -3.6602   -2.1402 H   0  0  0  0  0  0  0  0  0  0  0  0
   18.0927   -0.5267   -6.7323 H   0  0  0  0  0  0  0  0  0  0  0  0
   18.9632    1.4456   -6.2650 H   0  0  0  0  0  0  0  0  0  0  0  0
   18.3287    2.7506   -3.6787 H   0  0  0  0  0  0  0  0  0  0  0  0
   19.5372    3.2470   -4.8792 H   0  0  0  0  0  0  0  0  0  0  0  0
   18.8159    4.4217   -6.9833 H   0  0  0  0  0  0  0  0  0  0  0  0
   17.0551    5.5607   -8.2401 H   0  0  0  0  0  0  0  0  0  0  0  0
   12.5059    3.1888   -9.2997 H   0  0  0  0  0  0  0  0  0  0  0  0
   13.2422    2.8693   -7.7301 H   0  0  0  0  0  0  0  0  0  0  0  0
   14.2683    3.0539   -9.1583 H   0  0  0  0  0  0  0  0  0  0  0  0
   12.1341    7.7659   -8.9978 H   0  0  0  0  0  0  0  0  0  0  0  0
   14.1782    4.3597   -5.2881 H   0  0  0  0  0  0  0  0  0  0  0  0
   15.9362    3.2614   -4.0126 H   0  0  0  0  0  0  0  0  0  0  0  0
   15.4497    0.9873   -6.5461 H   0  0  0  0  0  0  0  0  0  0  0  0
   16.6475    1.0346   -7.8532 H   0  0  0  0  0  0  0  0  0  0  0  0
   14.4274   -0.4987   -8.1045 H   0  0  0  0  0  0  0  0  0  0  0  0
   17.1149   -1.2086   -8.6679 H   0  0  0  0  0  0  0  0  0  0  0  0
   15.4209   -2.8426   -7.0720 H   0  0  0  0  0  0  0  0  0  0  0  0
   14.4984   -1.7075   -6.0330 H   0  0  0  0  0  0  0  0  0  0  0  0
  1 34  1  0  0  0  0
  1 35  1  0  0  0  0
  1 36  1  0  0  0  0
  1  2  1  0  0  0  0
  2  3  2  0  0  0  0
  2  4  1  0  0  0  0
  4 37  1  0  0  0  0
  5  4  1  0  0  0  0
  5 38  1  0  0  0  0
  5  6  1  0  0  0  0
  5 10  1  0  0  0  0
  6  7  1  0  0  0  0
  6  8  1  0  0  0  0
  6  9  1  0  0  0  0
  7 39  1  0  0  0  0
  7 40  1  0  0  0  0
  7 41  1  0  0  0  0
  8 42  1  0  0  0  0
  8 43  1  0  0  0  0
  8 44  1  0  0  0  0
  9 45  1  0  0  0  0
  9 46  1  0  0  0  0
  9 47  1  0  0  0  0
 10 11  2  0  0  0  0
 10 12  1  0  0  0  0
 12 33  1  0  0  0  0
 13 12  1  0  0  0  0
 13 30  1  0  0  0  0
 13 48  1  0  0  0  0
 13 14  1  0  0  0  0
 14 15  2  0  0  0  0
 14 16  1  0  0  0  0
 16 49  1  0  0  0  0
 16 17  1  0  0  0  0
 17 50  1  0  0  0  0
 17 51  1  0  0  0  0
 17 18  1  0  0  0  0
 18 19  1  0  0  0  0
 18 29  2  0  0  0  0
 19 52  1  0  0  0  0
 19 20  2  0  0  0  0
 20 53  1  0  0  0  0
 20 21  1  0  0  0  0
 21 28  2  0  0  0  0
 21 22  1  0  0  0  0
 22 23  2  0  0  0  0
 22 27  1  0  0  0  0
 23 24  1  0  0  0  0
 23 25  1  0  0  0  0
 24 54  1  0  0  0  0
 24 55  1  0  0  0  0
 24 56  1  0  0  0  0
 25 26  2  0  0  0  0
 26 57  1  0  0  0  0
 26 27  1  0  0  0  0
 28 58  1  0  0  0  0
 28 29  1  0  0  0  0
 29 59  1  0  0  0  0
 31 30  1  0  0  0  0
 30 60  1  0  0  0  0
 30 61  1  0  0  0  0
 31 33  1  0  0  0  0
 31 62  1  0  0  0  0
 31 32  1  0  0  0  0
 32 63  1  0  0  0  0
 33 64  1  0  0  0  0
 33 65  1  0  0  0  0
M  ZZC   1 c1
M  ZZC   2 c2
M  ZZC   3 o1
M  ZZC   4 n1
M  ZZC   5 c3
M  ZZC   6 c4
M  ZZC   7 c5
M  ZZC   8 c6
M  ZZC   9 c7
M  ZZC  10 c8
M  ZZC  11 o2
M  ZZC  12 n2
M  ZZC  13 c9
M  ZZC  14 c10
M  ZZC  15 o3
M  ZZC  16 n3
M  ZZC  17 c11
M  ZZC  18 c12
M  ZZC  19 c13
M  ZZC  20 c14
M  ZZC  21 c15
M  ZZC  22 c16
M  ZZC  23 c17
M  ZZC  24 c18
M  ZZC  25 n4
M  ZZC  26 c19
M  ZZC  27 s1
M  ZZC  28 c20
M  ZZC  29 c21
M  ZZC  30 c22
M  ZZC  31 c23
M  ZZC  32 o4
M  ZZC  33 c24
M  ZZC  34 h11
M  ZZC  35 h12
M  ZZC  36 h13
M  ZZC  37 h01
M  ZZC  38 h31
M  ZZC  39 h51
M  ZZC  40 h52
M  ZZC  41 h53
M  ZZC  42 h61
M  ZZC  43 h62
M  ZZC  44 h63
M  ZZC  45 h71
M  ZZC  46 h72
M  ZZC  47 h73
M  ZZC  48 h91
M  ZZC  49 h02
M  ZZC  50 h111
M  ZZC  51 h112
M  ZZC  52 h131
M  ZZC  53 h141
M  ZZC  54 h181
M  ZZC  55 h182
M  ZZC  56 h183
M  ZZC  57 h191
M  ZZC  58 h201
M  ZZC  59 h211
M  ZZC  60 h221
M  ZZC  61 h222
M  ZZC  62 h231
M  ZZC  63 h41
M  ZZC  64 h241
M  ZZC  65 h242
M  ZZM   1 1
M  ZZI   1 111
M  ZZM   2 3
M  ZZI   2 121
M  ZZM   3 7
M  ZZI   3 81
M  ZZM   4 10
M  ZZI   4 211
M  ZZM   5 1
M  ZZI   5 113
M  ZZM   6 1
M  ZZI   6 110
M  ZZM   7 1
M  ZZI   7 111
M  ZZM   8 1
M  ZZI   8 111
M  ZZM   9 1
M  ZZI   9 111
M  ZZM  10 3
M  ZZI  10 121
M  ZZM  11 7
M  ZZI  11 81
M  ZZM  12 10
M  ZZI  12 192
M  ZZM  13 1
M  ZZI  13 113
M  ZZM  14 3
M  ZZI  14 121
M  ZZM  15 7
M  ZZI  15 81
M  ZZM  16 10
M  ZZI  16 211
M  ZZM  17 1
M  ZZI  17 112
M  ZZM  18 37
M  ZZI  18 124
M  ZZM  19 37
M  ZZI  19 125
M  ZZM  20 37
M  ZZI  20 125
M  ZZM  21 37
M  ZZI  21 124
M  ZZM  22 63
M  ZZI  22 104
M  ZZM  23 64
M  ZZI  23 105
M  ZZM  24 1
M  ZZI  24 111
M  ZZM  25 66
M  ZZI  25 222
M  ZZM  26 63
M  ZZI  26 104
M  ZZM  27 44
M  ZZI  27 248
M  ZZM  28 37
M  ZZI  28 125
M  ZZM  29 37
M  ZZI  29 125
M  ZZM  30 1
M  ZZI  30 112
M  ZZM  31 1
M  ZZI  31 113
M  ZZM  32 6
M  ZZI  32 60
M  ZZM  33 1
M  ZZI  33 112
M  ZZM  34 5
M  ZZI  34 1
M  ZZM  35 5
M  ZZI  35 1
M  ZZM  36 5
M  ZZI  36 1
M  ZZM  37 28
M  ZZI  37 11
M  ZZM  38 5
M  ZZI  38 1
M  ZZM  39 5
M  ZZI  39 1
M  ZZM  40 5
M  ZZI  40 1
M  ZZM  41 5
M  ZZI  41 1
M  ZZM  42 5
M  ZZI  42 1
M  ZZM  43 5
M  ZZI  43 1
M  ZZM  44 5
M  ZZI  44 1
M  ZZM  45 5
M  ZZI  45 1
M  ZZM  46 5
M  ZZI  46 1
M  ZZM  47 5
M  ZZI  47 1
M  ZZM  48 5
M  ZZI  48 1
M  ZZM  49 28
M  ZZI  49 11
M  ZZM  50 5
M  ZZI  50 1
M  ZZM  51 5
M  ZZI  51 1
M  ZZM  52 5
M  ZZI  52 1
M  ZZM  53 5
M  ZZI  53 1
M  ZZM  54 5
M  ZZI  54 1
M  ZZM  55 5
M  ZZI  55 1
M  ZZM  56 5
M  ZZI  56 1
M  ZZM  57 5
M  ZZI  57 1
M  ZZM  58 5
M  ZZI  58 1
M  ZZM  59 5
M  ZZI  59 1
M  ZZM  60 5
M  ZZI  60 1
M  ZZM  61 5
M  ZZI  61 1
M  ZZM  62 5
M  ZZI  62 1
M  ZZM  63 21
M  ZZI  63 20
M  ZZM  64 5
M  ZZI  64 1
M  ZZM  65 5
M  ZZI  65 1
M  END
> <IX>
1

> <NAME>
VHL_2GQG_16.pdb

> <Score>
-25.416706

> <Natom>
65

> <Nflex>
8

> <Hbond>
-9.75447

> <Hphob>
-6.568058

> <VwInt>
-31.215307

> <Dsolv>
20.711357

> <SolEl>
14.79152

> <Eintl>
7.970145

> <RecConf>
ND

> <projPath>
VHL_maps/

> <NAME_>
VHL_2GQG_16.pdb

$$$$
