VHL_6MX8_7.pdb
  MOLSOFT 04032206433D

 65 67  0  0  1  0  0  0  0  0999 V2000
   18.4239   -7.0166   -5.3944 C   0  0  0  0  0  0  0  0  0  0  0  0
   17.2439   -6.0854   -5.3499 C   0  0  0  0  0  0  0  0  0  0  0  0
   16.1432   -6.4519   -5.7299 O   0  0  0  0  0  0  0  0  0  0  0  0
   17.5374   -4.8396   -4.8285 N   0  0  0  0  0  0  0  0  0  0  0  0
   16.5609   -3.7521   -4.7151 C   0  0  1  0  0  0  0  0  0  0  0  0
   15.9183   -3.6435   -3.2915 C   0  0  0  0  0  0  0  0  0  0  0  0
   16.8967   -3.0670   -2.2561 C   0  0  0  0  0  0  0  0  0  0  0  0
   15.4629   -5.0196   -2.7826 C   0  0  0  0  0  0  0  0  0  0  0  0
   14.6714   -2.7458   -3.3296 C   0  0  0  0  0  0  0  0  0  0  0  0
   17.2595   -2.4522   -5.1612 C   0  0  0  0  0  0  0  0  0  0  0  0
   18.4145   -2.2132   -4.8396 O   0  0  0  0  0  0  0  0  0  0  0  0
   16.5104   -1.5084   -5.8673 N   0  0  0  0  0  0  0  0  0  0  0  0
   17.0400   -0.1719   -6.1327 C   0  0  2  0  0  0  0  0  0  0  0  0
   17.1976    0.6607   -4.8529 C   0  0  0  0  0  0  0  0  0  0  0  0
   16.6341    0.3777   -3.8064 O   0  0  0  0  0  0  0  0  0  0  0  0
   17.9887    1.7946   -4.9092 N   0  0  0  0  0  0  0  0  0  0  0  0
   18.6268    2.4062   -6.0637 C   0  0  0  0  0  0  0  0  0  0  0  0
   17.8783    3.6106   -6.5843 C   0  0  0  0  0  0  0  0  0  0  0  0
   16.5813    3.9219   -6.1803 C   0  0  0  0  0  0  0  0  0  0  0  0
   15.9213    5.0277   -6.6811 C   0  0  0  0  0  0  0  0  0  0  0  0
   16.5289    5.8667   -7.6069 C   0  0  0  0  0  0  0  0  0  0  0  0
   15.8245    7.0442   -8.1054 C   0  0  0  0  0  0  0  0  0  0  0  0
   14.5160    7.2047   -8.5486 C   0  0  0  0  0  0  0  0  0  0  0  0
   13.4738    6.1620   -8.6867 C   0  0  0  0  0  0  0  0  0  0  0  0
   14.1706    8.4930   -8.8952 N   0  0  0  0  0  0  0  0  0  0  0  0
   15.2071    9.2867   -8.7500 C   0  0  0  0  0  0  0  0  0  0  0  0
   16.6338    8.5634   -8.1645 S   0  0  0  0  0  0  0  0  0  0  0  0
   17.8206    5.5520   -8.0237 C   0  0  0  0  0  0  0  0  0  0  0  0
   18.4817    4.4424   -7.5213 C   0  0  0  0  0  0  0  0  0  0  0  0
   16.0269    0.4682   -7.0792 C   0  0  0  0  0  0  0  0  0  0  0  0
   15.3837   -0.7128   -7.7744 C   0  0  1  0  0  0  0  0  0  0  0  0
   16.1789   -1.1254   -8.8967 O   0  0  0  0  0  0  0  0  0  0  0  0
   15.3592   -1.7901   -6.7014 C   0  0  0  0  0  0  0  0  0  0  0  0
   19.3698   -6.4760   -5.2957 H   0  0  0  0  0  0  0  0  0  0  0  0
   18.4283   -7.5414   -6.3532 H   0  0  0  0  0  0  0  0  0  0  0  0
   18.3321   -7.7436   -4.5843 H   0  0  0  0  0  0  0  0  0  0  0  0
   18.4859   -4.6555   -4.5236 H   0  0  0  0  0  0  0  0  0  0  0  0
   15.7878   -3.9849   -5.4346 H   0  0  0  0  0  0  0  0  0  0  0  0
   16.4671   -3.0821   -1.2491 H   0  0  0  0  0  0  0  0  0  0  0  0
   17.1608   -2.0278   -2.4706 H   0  0  0  0  0  0  0  0  0  0  0  0
   17.8243   -3.6401   -2.2195 H   0  0  0  0  0  0  0  0  0  0  0  0
   14.9675   -4.9454   -1.8094 H   0  0  0  0  0  0  0  0  0  0  0  0
   16.2995   -5.7121   -2.6576 H   0  0  0  0  0  0  0  0  0  0  0  0
   14.7482   -5.4757   -3.4688 H   0  0  0  0  0  0  0  0  0  0  0  0
   14.9264   -1.7178   -3.6068 H   0  0  0  0  0  0  0  0  0  0  0  0
   14.1805   -2.7029   -2.3524 H   0  0  0  0  0  0  0  0  0  0  0  0
   13.9344   -3.0927   -4.0572 H   0  0  0  0  0  0  0  0  0  0  0  0
   18.0167   -0.2975   -6.6003 H   0  0  0  0  0  0  0  0  0  0  0  0
   18.0709    2.2884   -4.0276 H   0  0  0  0  0  0  0  0  0  0  0  0
   19.6229    2.7157   -5.7309 H   0  0  0  0  0  0  0  0  0  0  0  0
   18.7530    1.6756   -6.8659 H   0  0  0  0  0  0  0  0  0  0  0  0
   16.0582    3.3078   -5.4544 H   0  0  0  0  0  0  0  0  0  0  0  0
   14.9196    5.2389   -6.3182 H   0  0  0  0  0  0  0  0  0  0  0  0
   12.7306    6.4526   -9.4337 H   0  0  0  0  0  0  0  0  0  0  0  0
   12.9530    6.0162   -7.7372 H   0  0  0  0  0  0  0  0  0  0  0  0
   13.8993    5.2048   -9.0021 H   0  0  0  0  0  0  0  0  0  0  0  0
   15.1698   10.3409   -8.9828 H   0  0  0  0  0  0  0  0  0  0  0  0
   18.3303    6.1716   -8.7564 H   0  0  0  0  0  0  0  0  0  0  0  0
   19.4893    4.2310   -7.8683 H   0  0  0  0  0  0  0  0  0  0  0  0
   15.2686    1.0255   -6.5174 H   0  0  0  0  0  0  0  0  0  0  0  0
   16.5028    1.1538   -7.7869 H   0  0  0  0  0  0  0  0  0  0  0  0
   14.3817   -0.4775   -8.1365 H   0  0  0  0  0  0  0  0  0  0  0  0
   17.1161   -1.0566   -8.6357 H   0  0  0  0  0  0  0  0  0  0  0  0
   15.4295   -2.7934   -7.1289 H   0  0  0  0  0  0  0  0  0  0  0  0
   14.4654   -1.7061   -6.0757 H   0  0  0  0  0  0  0  0  0  0  0  0
  1 34  1  0  0  0  0
  1 35  1  0  0  0  0
  1 36  1  0  0  0  0
  1  2  1  0  0  0  0
  2  3  2  0  0  0  0
  2  4  1  0  0  0  0
  4 37  1  0  0  0  0
  5  4  1  0  0  0  0
  5 38  1  0  0  0  0
  5  6  1  0  0  0  0
  5 10  1  0  0  0  0
  6  7  1  0  0  0  0
  6  8  1  0  0  0  0
  6  9  1  0  0  0  0
  7 39  1  0  0  0  0
  7 40  1  0  0  0  0
  7 41  1  0  0  0  0
  8 42  1  0  0  0  0
  8 43  1  0  0  0  0
  8 44  1  0  0  0  0
  9 45  1  0  0  0  0
  9 46  1  0  0  0  0
  9 47  1  0  0  0  0
 10 11  2  0  0  0  0
 10 12  1  0  0  0  0
 12 33  1  0  0  0  0
 13 12  1  0  0  0  0
 13 30  1  0  0  0  0
 13 48  1  0  0  0  0
 13 14  1  0  0  0  0
 14 15  2  0  0  0  0
 14 16  1  0  0  0  0
 16 49  1  0  0  0  0
 16 17  1  0  0  0  0
 17 50  1  0  0  0  0
 17 51  1  0  0  0  0
 17 18  1  0  0  0  0
 18 19  1  0  0  0  0
 18 29  2  0  0  0  0
 19 52  1  0  0  0  0
 19 20  2  0  0  0  0
 20 53  1  0  0  0  0
 20 21  1  0  0  0  0
 21 28  2  0  0  0  0
 21 22  1  0  0  0  0
 22 23  2  0  0  0  0
 22 27  1  0  0  0  0
 23 24  1  0  0  0  0
 23 25  1  0  0  0  0
 24 54  1  0  0  0  0
 24 55  1  0  0  0  0
 24 56  1  0  0  0  0
 25 26  2  0  0  0  0
 26 57  1  0  0  0  0
 26 27  1  0  0  0  0
 28 58  1  0  0  0  0
 28 29  1  0  0  0  0
 29 59  1  0  0  0  0
 31 30  1  0  0  0  0
 30 60  1  0  0  0  0
 30 61  1  0  0  0  0
 31 33  1  0  0  0  0
 31 62  1  0  0  0  0
 31 32  1  0  0  0  0
 32 63  1  0  0  0  0
 33 64  1  0  0  0  0
 33 65  1  0  0  0  0
M  ZZC   1 c1
M  ZZC   2 c2
M  ZZC   3 o1
M  ZZC   4 n1
M  ZZC   5 c3
M  ZZC   6 c4
M  ZZC   7 c5
M  ZZC   8 c6
M  ZZC   9 c7
M  ZZC  10 c8
M  ZZC  11 o2
M  ZZC  12 n2
M  ZZC  13 c9
M  ZZC  14 c10
M  ZZC  15 o3
M  ZZC  16 n3
M  ZZC  17 c11
M  ZZC  18 c12
M  ZZC  19 c13
M  ZZC  20 c14
M  ZZC  21 c15
M  ZZC  22 c16
M  ZZC  23 c17
M  ZZC  24 c18
M  ZZC  25 n4
M  ZZC  26 c19
M  ZZC  27 s1
M  ZZC  28 c20
M  ZZC  29 c21
M  ZZC  30 c22
M  ZZC  31 c23
M  ZZC  32 o4
M  ZZC  33 c24
M  ZZC  34 h11
M  ZZC  35 h12
M  ZZC  36 h13
M  ZZC  37 h01
M  ZZC  38 h31
M  ZZC  39 h51
M  ZZC  40 h52
M  ZZC  41 h53
M  ZZC  42 h61
M  ZZC  43 h62
M  ZZC  44 h63
M  ZZC  45 h71
M  ZZC  46 h72
M  ZZC  47 h73
M  ZZC  48 h91
M  ZZC  49 h02
M  ZZC  50 h111
M  ZZC  51 h112
M  ZZC  52 h131
M  ZZC  53 h141
M  ZZC  54 h181
M  ZZC  55 h182
M  ZZC  56 h183
M  ZZC  57 h191
M  ZZC  58 h201
M  ZZC  59 h211
M  ZZC  60 h221
M  ZZC  61 h222
M  ZZC  62 h231
M  ZZC  63 h41
M  ZZC  64 h241
M  ZZC  65 h242
M  ZZM   1 1
M  ZZI   1 111
M  ZZM   2 3
M  ZZI   2 121
M  ZZM   3 7
M  ZZI   3 81
M  ZZM   4 10
M  ZZI   4 211
M  ZZM   5 1
M  ZZI   5 113
M  ZZM   6 1
M  ZZI   6 110
M  ZZM   7 1
M  ZZI   7 111
M  ZZM   8 1
M  ZZI   8 111
M  ZZM   9 1
M  ZZI   9 111
M  ZZM  10 3
M  ZZI  10 121
M  ZZM  11 7
M  ZZI  11 81
M  ZZM  12 10
M  ZZI  12 192
M  ZZM  13 1
M  ZZI  13 113
M  ZZM  14 3
M  ZZI  14 121
M  ZZM  15 7
M  ZZI  15 81
M  ZZM  16 10
M  ZZI  16 211
M  ZZM  17 1
M  ZZI  17 112
M  ZZM  18 37
M  ZZI  18 124
M  ZZM  19 37
M  ZZI  19 125
M  ZZM  20 37
M  ZZI  20 125
M  ZZM  21 37
M  ZZI  21 124
M  ZZM  22 63
M  ZZI  22 104
M  ZZM  23 64
M  ZZI  23 105
M  ZZM  24 1
M  ZZI  24 111
M  ZZM  25 66
M  ZZI  25 222
M  ZZM  26 63
M  ZZI  26 104
M  ZZM  27 44
M  ZZI  27 248
M  ZZM  28 37
M  ZZI  28 125
M  ZZM  29 37
M  ZZI  29 125
M  ZZM  30 1
M  ZZI  30 112
M  ZZM  31 1
M  ZZI  31 113
M  ZZM  32 6
M  ZZI  32 60
M  ZZM  33 1
M  ZZI  33 112
M  ZZM  34 5
M  ZZI  34 1
M  ZZM  35 5
M  ZZI  35 1
M  ZZM  36 5
M  ZZI  36 1
M  ZZM  37 28
M  ZZI  37 11
M  ZZM  38 5
M  ZZI  38 1
M  ZZM  39 5
M  ZZI  39 1
M  ZZM  40 5
M  ZZI  40 1
M  ZZM  41 5
M  ZZI  41 1
M  ZZM  42 5
M  ZZI  42 1
M  ZZM  43 5
M  ZZI  43 1
M  ZZM  44 5
M  ZZI  44 1
M  ZZM  45 5
M  ZZI  45 1
M  ZZM  46 5
M  ZZI  46 1
M  ZZM  47 5
M  ZZI  47 1
M  ZZM  48 5
M  ZZI  48 1
M  ZZM  49 28
M  ZZI  49 11
M  ZZM  50 5
M  ZZI  50 1
M  ZZM  51 5
M  ZZI  51 1
M  ZZM  52 5
M  ZZI  52 1
M  ZZM  53 5
M  ZZI  53 1
M  ZZM  54 5
M  ZZI  54 1
M  ZZM  55 5
M  ZZI  55 1
M  ZZM  56 5
M  ZZI  56 1
M  ZZM  57 5
M  ZZI  57 1
M  ZZM  58 5
M  ZZI  58 1
M  ZZM  59 5
M  ZZI  59 1
M  ZZM  60 5
M  ZZI  60 1
M  ZZM  61 5
M  ZZI  61 1
M  ZZM  62 5
M  ZZI  62 1
M  ZZM  63 21
M  ZZI  63 20
M  ZZM  64 5
M  ZZI  64 1
M  ZZM  65 5
M  ZZI  65 1
M  END
> <IX>
1

> <NAME>
VHL_6MX8_7.pdb

> <Score>
-22.784958

> <Natom>
65

> <Nflex>
8

> <Hbond>
-7.730216

> <Hphob>
-6.515666

> <VwInt>
-32.332464

> <Dsolv>
19.762841

> <SolEl>
12.700124

> <Eintl>
9.110392

> <RecConf>
ND

> <projPath>
VHL_maps/

> <NAME_>
VHL_6MX8_7.pdb

$$$$
