VHL_2GQG_8.pdb
  MOLSOFT 04032206373D

 65 67  0  0  1  0  0  0  0  0999 V2000
   18.0918   -6.7292   -5.1135 C   0  0  0  0  0  0  0  0  0  0  0  0
   16.8931   -5.8291   -4.9907 C   0  0  0  0  0  0  0  0  0  0  0  0
   15.8080   -6.1695   -5.4289 O   0  0  0  0  0  0  0  0  0  0  0  0
   17.1485   -4.6512   -4.3169 N   0  0  0  0  0  0  0  0  0  0  0  0
   16.1558   -3.5937   -4.0652 C   0  0  1  0  0  0  0  0  0  0  0  0
   15.8570   -3.4288   -2.5462 C   0  0  0  0  0  0  0  0  0  0  0  0
   14.7403   -2.4125   -2.2799 C   0  0  0  0  0  0  0  0  0  0  0  0
   17.0920   -2.9787   -1.7525 C   0  0  0  0  0  0  0  0  0  0  0  0
   15.3703   -4.7781   -2.0014 C   0  0  0  0  0  0  0  0  0  0  0  0
   16.7195   -2.3533   -4.7888 C   0  0  0  0  0  0  0  0  0  0  0  0
   17.9225   -2.1213   -4.7857 O   0  0  0  0  0  0  0  0  0  0  0  0
   15.8295   -1.5284   -5.4826 N   0  0  0  0  0  0  0  0  0  0  0  0
   16.3223   -0.5845   -6.4743 C   0  0  2  0  0  0  0  0  0  0  0  0
   16.7229    0.7647   -5.8707 C   0  0  0  0  0  0  0  0  0  0  0  0
   16.1917    1.2330   -4.8728 O   0  0  0  0  0  0  0  0  0  0  0  0
   17.6867    1.4242   -6.6120 N   0  0  0  0  0  0  0  0  0  0  0  0
   18.1480    2.7592   -6.2672 C   0  0  0  0  0  0  0  0  0  0  0  0
   19.6013    3.0466   -6.5737 C   0  0  0  0  0  0  0  0  0  0  0  0
   20.4552    2.1334   -7.1839 C   0  0  0  0  0  0  0  0  0  0  0  0
   21.7804    2.4439   -7.4185 C   0  0  0  0  0  0  0  0  0  0  0  0
   22.3190    3.6646   -7.0406 C   0  0  0  0  0  0  0  0  0  0  0  0
   23.7413    3.9283   -7.2320 C   0  0  0  0  0  0  0  0  0  0  0  0
   24.5360    3.8754   -8.3719 C   0  0  0  0  0  0  0  0  0  0  0  0
   24.1027    3.5964   -9.7590 C   0  0  0  0  0  0  0  0  0  0  0  0
   25.8798    4.1062   -8.1604 N   0  0  0  0  0  0  0  0  0  0  0  0
   26.0946    4.3499   -6.8880 C   0  0  0  0  0  0  0  0  0  0  0  0
   24.7220    4.3273   -5.8739 S   0  0  0  0  0  0  0  0  0  0  0  0
   21.4694    4.5895   -6.4446 C   0  0  0  0  0  0  0  0  0  0  0  0
   20.1348    4.2843   -6.2223 C   0  0  0  0  0  0  0  0  0  0  0  0
   15.1567   -0.4307   -7.4372 C   0  0  0  0  0  0  0  0  0  0  0  0
   13.9345   -0.5612   -6.5436 C   0  0  1  0  0  0  0  0  0  0  0  0
   12.8376   -1.1012   -7.2760 O   0  0  0  0  0  0  0  0  0  0  0  0
   14.3773   -1.5165   -5.4437 C   0  0  0  0  0  0  0  0  0  0  0  0
   19.0121   -6.1473   -5.2218 H   0  0  0  0  0  0  0  0  0  0  0  0
   17.9803   -7.3647   -5.9971 H   0  0  0  0  0  0  0  0  0  0  0  0
   18.1550   -7.3601   -4.2237 H   0  0  0  0  0  0  0  0  0  0  0  0
   18.1085   -4.4630   -4.0498 H   0  0  0  0  0  0  0  0  0  0  0  0
   15.2334   -3.9002   -4.5566 H   0  0  0  0  0  0  0  0  0  0  0  0
   15.0415   -1.3988   -2.5579 H   0  0  0  0  0  0  0  0  0  0  0  0
   14.4774   -2.3772   -1.2174 H   0  0  0  0  0  0  0  0  0  0  0  0
   13.8266   -2.6720   -2.8234 H   0  0  0  0  0  0  0  0  0  0  0  0
   16.8764   -2.9159   -0.6810 H   0  0  0  0  0  0  0  0  0  0  0  0
   17.4428   -1.9920   -2.0701 H   0  0  0  0  0  0  0  0  0  0  0  0
   17.9218   -3.6740   -1.8681 H   0  0  0  0  0  0  0  0  0  0  0  0
   15.0915   -4.6984   -0.9482 H   0  0  0  0  0  0  0  0  0  0  0  0
   16.1376   -5.5507   -2.0821 H   0  0  0  0  0  0  0  0  0  0  0  0
   14.4909   -5.1376   -2.5453 H   0  0  0  0  0  0  0  0  0  0  0  0
   17.1923   -1.0095   -6.9823 H   0  0  0  0  0  0  0  0  0  0  0  0
   18.0421    0.9785   -7.4513 H   0  0  0  0  0  0  0  0  0  0  0  0
   17.5180    3.4563   -6.8302 H   0  0  0  0  0  0  0  0  0  0  0  0
   17.9662    2.9278   -5.2004 H   0  0  0  0  0  0  0  0  0  0  0  0
   20.1144    1.1464   -7.4708 H   0  0  0  0  0  0  0  0  0  0  0  0
   22.4040    1.6922   -7.8849 H   0  0  0  0  0  0  0  0  0  0  0  0
   24.0148    2.5201   -9.9233 H   0  0  0  0  0  0  0  0  0  0  0  0
   24.8266    3.9854  -10.4806 H   0  0  0  0  0  0  0  0  0  0  0  0
   23.1388    4.0651   -9.9739 H   0  0  0  0  0  0  0  0  0  0  0  0
   27.0820    4.5541   -6.4987 H   0  0  0  0  0  0  0  0  0  0  0  0
   21.8426    5.5623   -6.1387 H   0  0  0  0  0  0  0  0  0  0  0  0
   19.5038    5.0296   -5.7465 H   0  0  0  0  0  0  0  0  0  0  0  0
   15.1620    0.5160   -7.9878 H   0  0  0  0  0  0  0  0  0  0  0  0
   15.1687   -1.2351   -8.1820 H   0  0  0  0  0  0  0  0  0  0  0  0
   13.6478    0.4155   -6.1362 H   0  0  0  0  0  0  0  0  0  0  0  0
   12.0164   -0.8487   -6.8179 H   0  0  0  0  0  0  0  0  0  0  0  0
   13.9734   -2.5234   -5.5505 H   0  0  0  0  0  0  0  0  0  0  0  0
   14.0490   -1.1274   -4.4796 H   0  0  0  0  0  0  0  0  0  0  0  0
  1 34  1  0  0  0  0
  1 35  1  0  0  0  0
  1 36  1  0  0  0  0
  1  2  1  0  0  0  0
  2  3  2  0  0  0  0
  2  4  1  0  0  0  0
  4 37  1  0  0  0  0
  5  4  1  0  0  0  0
  5 38  1  0  0  0  0
  5  6  1  0  0  0  0
  5 10  1  0  0  0  0
  6  7  1  0  0  0  0
  6  8  1  0  0  0  0
  6  9  1  0  0  0  0
  7 39  1  0  0  0  0
  7 40  1  0  0  0  0
  7 41  1  0  0  0  0
  8 42  1  0  0  0  0
  8 43  1  0  0  0  0
  8 44  1  0  0  0  0
  9 45  1  0  0  0  0
  9 46  1  0  0  0  0
  9 47  1  0  0  0  0
 10 11  2  0  0  0  0
 10 12  1  0  0  0  0
 12 33  1  0  0  0  0
 13 12  1  0  0  0  0
 13 30  1  0  0  0  0
 13 48  1  0  0  0  0
 13 14  1  0  0  0  0
 14 15  2  0  0  0  0
 14 16  1  0  0  0  0
 16 49  1  0  0  0  0
 16 17  1  0  0  0  0
 17 50  1  0  0  0  0
 17 51  1  0  0  0  0
 17 18  1  0  0  0  0
 18 19  1  0  0  0  0
 18 29  2  0  0  0  0
 19 52  1  0  0  0  0
 19 20  2  0  0  0  0
 20 53  1  0  0  0  0
 20 21  1  0  0  0  0
 21 28  2  0  0  0  0
 21 22  1  0  0  0  0
 22 23  2  0  0  0  0
 22 27  1  0  0  0  0
 23 24  1  0  0  0  0
 23 25  1  0  0  0  0
 24 54  1  0  0  0  0
 24 55  1  0  0  0  0
 24 56  1  0  0  0  0
 25 26  2  0  0  0  0
 26 57  1  0  0  0  0
 26 27  1  0  0  0  0
 28 58  1  0  0  0  0
 28 29  1  0  0  0  0
 29 59  1  0  0  0  0
 31 30  1  0  0  0  0
 30 60  1  0  0  0  0
 30 61  1  0  0  0  0
 31 33  1  0  0  0  0
 31 62  1  0  0  0  0
 31 32  1  0  0  0  0
 32 63  1  0  0  0  0
 33 64  1  0  0  0  0
 33 65  1  0  0  0  0
M  ZZC   1 c1
M  ZZC   2 c2
M  ZZC   3 o1
M  ZZC   4 n1
M  ZZC   5 c3
M  ZZC   6 c4
M  ZZC   7 c5
M  ZZC   8 c6
M  ZZC   9 c7
M  ZZC  10 c8
M  ZZC  11 o2
M  ZZC  12 n2
M  ZZC  13 c9
M  ZZC  14 c10
M  ZZC  15 o3
M  ZZC  16 n3
M  ZZC  17 c11
M  ZZC  18 c12
M  ZZC  19 c13
M  ZZC  20 c14
M  ZZC  21 c15
M  ZZC  22 c16
M  ZZC  23 c17
M  ZZC  24 c18
M  ZZC  25 n4
M  ZZC  26 c19
M  ZZC  27 s1
M  ZZC  28 c20
M  ZZC  29 c21
M  ZZC  30 c22
M  ZZC  31 c23
M  ZZC  32 o4
M  ZZC  33 c24
M  ZZC  34 h11
M  ZZC  35 h12
M  ZZC  36 h13
M  ZZC  37 h01
M  ZZC  38 h31
M  ZZC  39 h51
M  ZZC  40 h52
M  ZZC  41 h53
M  ZZC  42 h61
M  ZZC  43 h62
M  ZZC  44 h63
M  ZZC  45 h71
M  ZZC  46 h72
M  ZZC  47 h73
M  ZZC  48 h91
M  ZZC  49 h02
M  ZZC  50 h111
M  ZZC  51 h112
M  ZZC  52 h131
M  ZZC  53 h141
M  ZZC  54 h181
M  ZZC  55 h182
M  ZZC  56 h183
M  ZZC  57 h191
M  ZZC  58 h201
M  ZZC  59 h211
M  ZZC  60 h221
M  ZZC  61 h222
M  ZZC  62 h231
M  ZZC  63 h41
M  ZZC  64 h241
M  ZZC  65 h242
M  ZZM   1 1
M  ZZI   1 111
M  ZZM   2 3
M  ZZI   2 121
M  ZZM   3 7
M  ZZI   3 81
M  ZZM   4 10
M  ZZI   4 211
M  ZZM   5 1
M  ZZI   5 113
M  ZZM   6 1
M  ZZI   6 110
M  ZZM   7 1
M  ZZI   7 111
M  ZZM   8 1
M  ZZI   8 111
M  ZZM   9 1
M  ZZI   9 111
M  ZZM  10 3
M  ZZI  10 121
M  ZZM  11 7
M  ZZI  11 81
M  ZZM  12 10
M  ZZI  12 192
M  ZZM  13 1
M  ZZI  13 113
M  ZZM  14 3
M  ZZI  14 121
M  ZZM  15 7
M  ZZI  15 81
M  ZZM  16 10
M  ZZI  16 211
M  ZZM  17 1
M  ZZI  17 112
M  ZZM  18 37
M  ZZI  18 124
M  ZZM  19 37
M  ZZI  19 125
M  ZZM  20 37
M  ZZI  20 125
M  ZZM  21 37
M  ZZI  21 124
M  ZZM  22 63
M  ZZI  22 104
M  ZZM  23 64
M  ZZI  23 105
M  ZZM  24 1
M  ZZI  24 111
M  ZZM  25 66
M  ZZI  25 222
M  ZZM  26 63
M  ZZI  26 104
M  ZZM  27 44
M  ZZI  27 248
M  ZZM  28 37
M  ZZI  28 125
M  ZZM  29 37
M  ZZI  29 125
M  ZZM  30 1
M  ZZI  30 112
M  ZZM  31 1
M  ZZI  31 113
M  ZZM  32 6
M  ZZI  32 60
M  ZZM  33 1
M  ZZI  33 112
M  ZZM  34 5
M  ZZI  34 1
M  ZZM  35 5
M  ZZI  35 1
M  ZZM  36 5
M  ZZI  36 1
M  ZZM  37 28
M  ZZI  37 11
M  ZZM  38 5
M  ZZI  38 1
M  ZZM  39 5
M  ZZI  39 1
M  ZZM  40 5
M  ZZI  40 1
M  ZZM  41 5
M  ZZI  41 1
M  ZZM  42 5
M  ZZI  42 1
M  ZZM  43 5
M  ZZI  43 1
M  ZZM  44 5
M  ZZI  44 1
M  ZZM  45 5
M  ZZI  45 1
M  ZZM  46 5
M  ZZI  46 1
M  ZZM  47 5
M  ZZI  47 1
M  ZZM  48 5
M  ZZI  48 1
M  ZZM  49 28
M  ZZI  49 11
M  ZZM  50 5
M  ZZI  50 1
M  ZZM  51 5
M  ZZI  51 1
M  ZZM  52 5
M  ZZI  52 1
M  ZZM  53 5
M  ZZI  53 1
M  ZZM  54 5
M  ZZI  54 1
M  ZZM  55 5
M  ZZI  55 1
M  ZZM  56 5
M  ZZI  56 1
M  ZZM  57 5
M  ZZI  57 1
M  ZZM  58 5
M  ZZI  58 1
M  ZZM  59 5
M  ZZI  59 1
M  ZZM  60 5
M  ZZI  60 1
M  ZZM  61 5
M  ZZI  61 1
M  ZZM  62 5
M  ZZI  62 1
M  ZZM  63 21
M  ZZI  63 20
M  ZZM  64 5
M  ZZI  64 1
M  ZZM  65 5
M  ZZI  65 1
M  END
> <IX>
1

> <NAME>
VHL_2GQG_8.pdb

> <Score>
-12.73466

> <Natom>
65

> <Nflex>
8

> <Hbond>
-5.06166

> <Hphob>
-6.428821

> <VwInt>
-28.590032

> <Dsolv>
16.682604

> <SolEl>
15.62891

> <Eintl>
8.902748

> <RecConf>
ND

> <projPath>
VHL_maps/

> <NAME_>
VHL_2GQG_8.pdb

$$$$
