VHL_5EU1_23.pdb
  MOLSOFT 04032206423D

 70 73  0  0  1  0  0  0  0  0999 V2000
   17.7267   -7.0951   -3.4873 F   0  0  0  0  0  0  0  0  0  0  0  0
   17.3340   -6.1981   -4.4618 C   0  0  0  0  0  0  0  0  0  0  0  0
   16.4841   -5.0781   -3.9725 C   0  0  0  0  0  0  0  0  0  0  0  0
   15.3154   -5.2717   -3.6765 O   0  0  0  0  0  0  0  0  0  0  0  0
   17.1078   -3.8524   -3.8695 N   0  0  0  0  0  0  0  0  0  0  0  0
   16.3522   -2.6335   -3.5719 C   0  0  1  0  0  0  0  0  0  0  0  0
   16.6055   -2.0696   -2.1431 C   0  0  0  0  0  0  0  0  0  0  0  0
   15.6102   -0.9368   -1.8485 C   0  0  0  0  0  0  0  0  0  0  0  0
   16.3765   -3.1746   -1.0976 C   0  0  0  0  0  0  0  0  0  0  0  0
   18.0290   -1.5206   -1.9662 C   0  0  0  0  0  0  0  0  0  0  0  0
   16.7024   -1.6667   -4.7191 C   0  0  0  0  0  0  0  0  0  0  0  0
   17.8693   -1.4146   -4.9963 O   0  0  0  0  0  0  0  0  0  0  0  0
   15.6383   -1.1436   -5.4524 N   0  0  0  0  0  0  0  0  0  0  0  0
   15.8696   -0.3797   -6.6683 C   0  0  2  0  0  0  0  0  0  0  0  0
   16.1918    1.0827   -6.3554 C   0  0  0  0  0  0  0  0  0  0  0  0
   15.5263    1.7601   -5.5834 O   0  0  0  0  0  0  0  0  0  0  0  0
   17.2830    1.5642   -7.0512 N   0  0  0  0  0  0  0  0  0  0  0  0
   17.7236    2.9412   -6.9094 C   0  0  0  0  0  0  0  0  0  0  0  0
   19.1652    3.1617   -7.3018 C   0  0  0  0  0  0  0  0  0  0  0  0
   19.6006    4.3933   -7.7845 C   0  0  0  0  0  0  0  0  0  0  0  0
   18.6638    5.3968   -7.9573 O   0  0  0  0  0  0  0  0  0  0  0  0
   20.9328    4.6335   -8.1027 C   0  0  0  0  0  0  0  0  0  0  0  0
   21.8715    3.6215   -7.9442 C   0  0  0  0  0  0  0  0  0  0  0  0
   23.2762    3.8285   -8.2579 C   0  0  0  0  0  0  0  0  0  0  0  0
   24.3373    4.1889   -7.4396 C   0  0  0  0  0  0  0  0  0  0  0  0
   24.2765    4.5108   -5.9961 C   0  0  0  0  0  0  0  0  0  0  0  0
   25.5681    4.2294   -8.0633 N   0  0  0  0  0  0  0  0  0  0  0  0
   25.4292    3.9303   -9.3352 C   0  0  0  0  0  0  0  0  0  0  0  0
   23.8417    3.5923   -9.8625 S   0  0  0  0  0  0  0  0  0  0  0  0
   21.4436    2.3896   -7.4704 C   0  0  0  0  0  0  0  0  0  0  0  0
   20.1209    2.1647   -7.1424 C   0  0  0  0  0  0  0  0  0  0  0  0
   14.5597   -0.4923   -7.4285 C   0  0  0  0  0  0  0  0  0  0  0  0
   13.5047   -0.6150   -6.3395 C   0  0  1  0  0  0  0  0  0  0  0  0
   12.3707   -1.3484   -6.8004 O   0  0  0  0  0  0  0  0  0  0  0  0
   14.2213   -1.3854   -5.2427 C   0  0  0  0  0  0  0  0  0  0  0  0
   18.2908   -6.0437   -5.6197 C   0  0  0  0  0  0  0  0  0  0  0  0
   17.0377   -6.8501   -5.7830 C   0  0  0  0  0  0  0  0  0  0  0  0
   18.0936   -3.7751   -4.1004 H   0  0  0  0  0  0  0  0  0  0  0  0
   15.2955   -2.9010   -3.6361 H   0  0  0  0  0  0  0  0  0  0  0  0
   15.7256   -0.1092   -2.5560 H   0  0  0  0  0  0  0  0  0  0  0  0
   15.7581   -0.5250   -0.8444 H   0  0  0  0  0  0  0  0  0  0  0  0
   14.5727   -1.2780   -1.9189 H   0  0  0  0  0  0  0  0  0  0  0  0
   16.4522   -2.7833   -0.0779 H   0  0  0  0  0  0  0  0  0  0  0  0
   17.1140   -3.9779   -1.1840 H   0  0  0  0  0  0  0  0  0  0  0  0
   15.3825   -3.6231   -1.1990 H   0  0  0  0  0  0  0  0  0  0  0  0
   18.2270   -1.2518   -0.9237 H   0  0  0  0  0  0  0  0  0  0  0  0
   18.1982   -0.6182   -2.5609 H   0  0  0  0  0  0  0  0  0  0  0  0
   18.7801   -2.2562   -2.2576 H   0  0  0  0  0  0  0  0  0  0  0  0
   16.6934   -0.8285   -7.2355 H   0  0  0  0  0  0  0  0  0  0  0  0
   17.7950    0.9407   -7.6698 H   0  0  0  0  0  0  0  0  0  0  0  0
   17.0532    3.5344   -7.5400 H   0  0  0  0  0  0  0  0  0  0  0  0
   17.5764    3.2596   -5.8718 H   0  0  0  0  0  0  0  0  0  0  0  0
   19.1102    6.1737   -8.3373 H   0  0  0  0  0  0  0  0  0  0  0  0
   21.2422    5.6047   -8.4764 H   0  0  0  0  0  0  0  0  0  0  0  0
   25.2538    4.8299   -5.6225 H   0  0  0  0  0  0  0  0  0  0  0  0
   23.9705    3.6369   -5.4176 H   0  0  0  0  0  0  0  0  0  0  0  0
   23.5641    5.3186   -5.8059 H   0  0  0  0  0  0  0  0  0  0  0  0
   26.2667    3.9015  -10.0175 H   0  0  0  0  0  0  0  0  0  0  0  0
   22.1462    1.5720   -7.3665 H   0  0  0  0  0  0  0  0  0  0  0  0
   19.8407    1.1858   -6.7678 H   0  0  0  0  0  0  0  0  0  0  0  0
   14.3649    0.3518   -8.0986 H   0  0  0  0  0  0  0  0  0  0  0  0
   14.5721   -1.4014   -8.0387 H   0  0  0  0  0  0  0  0  0  0  0  0
   13.1766    0.3667   -5.9799 H   0  0  0  0  0  0  0  0  0  0  0  0
   11.9163   -0.8129   -7.4767 H   0  0  0  0  0  0  0  0  0  0  0  0
   14.0227   -2.4599   -5.3035 H   0  0  0  0  0  0  0  0  0  0  0  0
   13.9234   -1.0435   -4.2476 H   0  0  0  0  0  0  0  0  0  0  0  0
   18.3505   -5.0902   -6.1299 H   0  0  0  0  0  0  0  0  0  0  0  0
   19.2329   -6.5741   -5.5620 H   0  0  0  0  0  0  0  0  0  0  0  0
   17.1256   -7.9278   -5.8343 H   0  0  0  0  0  0  0  0  0  0  0  0
   16.2350   -6.4401   -6.3739 H   0  0  0  0  0  0  0  0  0  0  0  0
  2  1  1  0  0  0  0
  2 36  1  0  0  0  0
  2  3  1  0  0  0  0
  2 37  1  0  0  0  0
  3  4  2  0  0  0  0
  3  5  1  0  0  0  0
  5 38  1  0  0  0  0
  6  5  1  0  0  0  0
  6 39  1  0  0  0  0
  6  7  1  0  0  0  0
  6 11  1  0  0  0  0
  7  8  1  0  0  0  0
  7  9  1  0  0  0  0
  7 10  1  0  0  0  0
  8 40  1  0  0  0  0
  8 41  1  0  0  0  0
  8 42  1  0  0  0  0
  9 43  1  0  0  0  0
  9 44  1  0  0  0  0
  9 45  1  0  0  0  0
 10 46  1  0  0  0  0
 10 47  1  0  0  0  0
 10 48  1  0  0  0  0
 11 12  2  0  0  0  0
 11 13  1  0  0  0  0
 13 35  1  0  0  0  0
 14 13  1  0  0  0  0
 14 32  1  0  0  0  0
 14 49  1  0  0  0  0
 14 15  1  0  0  0  0
 15 16  2  0  0  0  0
 15 17  1  0  0  0  0
 17 50  1  0  0  0  0
 17 18  1  0  0  0  0
 18 51  1  0  0  0  0
 18 52  1  0  0  0  0
 18 19  1  0  0  0  0
 19 20  2  0  0  0  0
 19 31  1  0  0  0  0
 20 21  1  0  0  0  0
 20 22  1  0  0  0  0
 21 53  1  0  0  0  0
 22 54  1  0  0  0  0
 22 23  2  0  0  0  0
 23 30  1  0  0  0  0
 23 24  1  0  0  0  0
 24 25  2  0  0  0  0
 24 29  1  0  0  0  0
 25 26  1  0  0  0  0
 25 27  1  0  0  0  0
 26 55  1  0  0  0  0
 26 56  1  0  0  0  0
 26 57  1  0  0  0  0
 27 28  2  0  0  0  0
 28 58  1  0  0  0  0
 28 29  1  0  0  0  0
 30 59  1  0  0  0  0
 30 31  2  0  0  0  0
 31 60  1  0  0  0  0
 33 32  1  0  0  0  0
 32 61  1  0  0  0  0
 32 62  1  0  0  0  0
 33 35  1  0  0  0  0
 33 63  1  0  0  0  0
 33 34  1  0  0  0  0
 34 64  1  0  0  0  0
 35 65  1  0  0  0  0
 35 66  1  0  0  0  0
 36 67  1  0  0  0  0
 36 68  1  0  0  0  0
 36 37  1  0  0  0  0
 37 69  1  0  0  0  0
 37 70  1  0  0  0  0
M  ZZC   1 f1
M  ZZC   2 c1
M  ZZC   3 c2
M  ZZC   4 o1
M  ZZC   5 n1
M  ZZC   6 c3
M  ZZC   7 c4
M  ZZC   8 c5
M  ZZC   9 c6
M  ZZC  10 c7
M  ZZC  11 c8
M  ZZC  12 o2
M  ZZC  13 n2
M  ZZC  14 c9
M  ZZC  15 c10
M  ZZC  16 o3
M  ZZC  17 n3
M  ZZC  18 c11
M  ZZC  19 c12
M  ZZC  20 c13
M  ZZC  21 o4
M  ZZC  22 c14
M  ZZC  23 c15
M  ZZC  24 c16
M  ZZC  25 c17
M  ZZC  26 c18
M  ZZC  27 n4
M  ZZC  28 c19
M  ZZC  29 s1
M  ZZC  30 c20
M  ZZC  31 c21
M  ZZC  32 c22
M  ZZC  33 c23
M  ZZC  34 o5
M  ZZC  35 c24
M  ZZC  36 c25
M  ZZC  37 c26
M  ZZC  38 h11
M  ZZC  39 h31
M  ZZC  40 h51
M  ZZC  41 h52
M  ZZC  42 h53
M  ZZC  43 h61
M  ZZC  44 h62
M  ZZC  45 h63
M  ZZC  46 h71
M  ZZC  47 h72
M  ZZC  48 h73
M  ZZC  49 h91
M  ZZC  50 h01
M  ZZC  51 h111
M  ZZC  52 h112
M  ZZC  53 h41
M  ZZC  54 h141
M  ZZC  55 h181
M  ZZC  56 h182
M  ZZC  57 h183
M  ZZC  58 h191
M  ZZC  59 h201
M  ZZC  60 h211
M  ZZC  61 h221
M  ZZC  62 h222
M  ZZC  63 h231
M  ZZC  64 h02
M  ZZC  65 h241
M  ZZC  66 h242
M  ZZC  67 h251
M  ZZC  68 h252
M  ZZC  69 h261
M  ZZC  70 h262
M  ZZM   1 11
M  ZZI   1 90
M  ZZM   2 22
M  ZZI   2 109
M  ZZM   3 3
M  ZZI   3 121
M  ZZM   4 7
M  ZZI   4 81
M  ZZM   5 10
M  ZZI   5 211
M  ZZM   6 1
M  ZZI   6 113
M  ZZM   7 1
M  ZZI   7 110
M  ZZM   8 1
M  ZZI   8 111
M  ZZM   9 1
M  ZZI   9 111
M  ZZM  10 1
M  ZZI  10 111
M  ZZM  11 3
M  ZZI  11 121
M  ZZM  12 7
M  ZZI  12 81
M  ZZM  13 10
M  ZZI  13 192
M  ZZM  14 1
M  ZZI  14 113
M  ZZM  15 3
M  ZZI  15 121
M  ZZM  16 7
M  ZZI  16 81
M  ZZM  17 10
M  ZZI  17 211
M  ZZM  18 1
M  ZZI  18 112
M  ZZM  19 37
M  ZZI  19 124
M  ZZM  20 37
M  ZZI  20 124
M  ZZM  21 6
M  ZZI  21 62
M  ZZM  22 37
M  ZZI  22 125
M  ZZM  23 37
M  ZZI  23 124
M  ZZM  24 63
M  ZZI  24 104
M  ZZM  25 64
M  ZZI  25 105
M  ZZM  26 1
M  ZZI  26 111
M  ZZM  27 66
M  ZZI  27 222
M  ZZM  28 63
M  ZZI  28 104
M  ZZM  29 44
M  ZZI  29 248
M  ZZM  30 37
M  ZZI  30 125
M  ZZM  31 37
M  ZZI  31 125
M  ZZM  32 1
M  ZZI  32 112
M  ZZM  33 1
M  ZZI  33 113
M  ZZM  34 6
M  ZZI  34 60
M  ZZM  35 1
M  ZZI  35 112
M  ZZM  36 22
M  ZZI  36 109
M  ZZM  37 22
M  ZZI  37 109
M  ZZM  38 28
M  ZZI  38 11
M  ZZM  39 5
M  ZZI  39 1
M  ZZM  40 5
M  ZZI  40 1
M  ZZM  41 5
M  ZZI  41 1
M  ZZM  42 5
M  ZZI  42 1
M  ZZM  43 5
M  ZZI  43 1
M  ZZM  44 5
M  ZZI  44 1
M  ZZM  45 5
M  ZZI  45 1
M  ZZM  46 5
M  ZZI  46 1
M  ZZM  47 5
M  ZZI  47 1
M  ZZM  48 5
M  ZZI  48 1
M  ZZM  49 5
M  ZZI  49 1
M  ZZM  50 28
M  ZZI  50 11
M  ZZM  51 5
M  ZZI  51 1
M  ZZM  52 5
M  ZZI  52 1
M  ZZM  53 29
M  ZZI  53 27
M  ZZM  54 5
M  ZZI  54 1
M  ZZM  55 5
M  ZZI  55 1
M  ZZM  56 5
M  ZZI  56 1
M  ZZM  57 5
M  ZZI  57 1
M  ZZM  58 5
M  ZZI  58 1
M  ZZM  59 5
M  ZZI  59 1
M  ZZM  60 5
M  ZZI  60 1
M  ZZM  61 5
M  ZZI  61 1
M  ZZM  62 5
M  ZZI  62 1
M  ZZM  63 5
M  ZZI  63 1
M  ZZM  64 21
M  ZZI  64 20
M  ZZM  65 5
M  ZZI  65 1
M  ZZM  66 5
M  ZZI  66 1
M  ZZM  67 5
M  ZZI  67 1
M  ZZM  68 5
M  ZZI  68 1
M  ZZM  69 5
M  ZZI  69 1
M  ZZM  70 5
M  ZZI  70 1
M  END
> <IX>
1

> <NAME>
VHL_5EU1_23.pdb

> <Score>
-13.097381

> <Natom>
70

> <Nflex>
9

> <Hbond>
-5.0102

> <Hphob>
-6.458646

> <VwInt>
-32.824882

> <Dsolv>
18.162963

> <SolEl>
21.261013

> <Eintl>
6.12685

> <RecConf>
ND

> <projPath>
VHL_maps/

> <NAME_>
VHL_5EU1_23.pdb

$$$$
