VHL_3MXF_24.pdb
  MOLSOFT 04032206373D

 65 67  0  0  1  0  0  0  0  0999 V2000
   18.3431   -6.9383   -5.3199 C   0  0  0  0  0  0  0  0  0  0  0  0
   17.1696   -5.9993   -5.2832 C   0  0  0  0  0  0  0  0  0  0  0  0
   16.0677   -6.3596   -5.6644 O   0  0  0  0  0  0  0  0  0  0  0  0
   17.4681   -4.7581   -4.7542 N   0  0  0  0  0  0  0  0  0  0  0  0
   16.4978   -3.6645   -4.6363 C   0  0  1  0  0  0  0  0  0  0  0  0
   15.8811   -3.5360   -3.2061 C   0  0  0  0  0  0  0  0  0  0  0  0
   14.6606   -2.6021   -3.2348 C   0  0  0  0  0  0  0  0  0  0  0  0
   16.8889   -2.9832   -2.1859 C   0  0  0  0  0  0  0  0  0  0  0  0
   15.3959   -4.9020   -2.6957 C   0  0  0  0  0  0  0  0  0  0  0  0
   17.1965   -2.3759   -5.1123 C   0  0  0  0  0  0  0  0  0  0  0  0
   18.3483   -2.1240   -4.7893 O   0  0  0  0  0  0  0  0  0  0  0  0
   16.4603   -1.4622   -5.8674 N   0  0  0  0  0  0  0  0  0  0  0  0
   17.0253   -0.1659   -6.2221 C   0  0  2  0  0  0  0  0  0  0  0  0
   17.2072    0.8063   -5.0642 C   0  0  0  0  0  0  0  0  0  0  0  0
   16.5535    0.7616   -4.0309 O   0  0  0  0  0  0  0  0  0  0  0  0
   18.1122    1.8031   -5.3755 N   0  0  0  0  0  0  0  0  0  0  0  0
   18.2258    3.0114   -4.5931 C   0  0  0  0  0  0  0  0  0  0  0  0
   17.2820    4.0586   -5.1256 C   0  0  0  0  0  0  0  0  0  0  0  0
   16.0852    4.3363   -4.4727 C   0  0  0  0  0  0  0  0  0  0  0  0
   15.2079    5.2826   -4.9743 C   0  0  0  0  0  0  0  0  0  0  0  0
   15.5018    5.9722   -6.1466 C   0  0  0  0  0  0  0  0  0  0  0  0
   14.6147    7.0114   -6.6479 C   0  0  0  0  0  0  0  0  0  0  0  0
   13.9310    7.1297   -7.8516 C   0  0  0  0  0  0  0  0  0  0  0  0
   13.8924    6.1437   -8.9553 C   0  0  0  0  0  0  0  0  0  0  0  0
   13.2243    8.3057   -8.0065 N   0  0  0  0  0  0  0  0  0  0  0  0
   13.3715    9.0498   -6.9336 C   0  0  0  0  0  0  0  0  0  0  0  0
   14.3201    8.3995   -5.6779 S   0  0  0  0  0  0  0  0  0  0  0  0
   16.6829    5.6733   -6.8174 C   0  0  0  0  0  0  0  0  0  0  0  0
   17.5621    4.7300   -6.3130 C   0  0  0  0  0  0  0  0  0  0  0  0
   16.0374    0.4494   -7.2072 C   0  0  0  0  0  0  0  0  0  0  0  0
   15.3700   -0.7531   -7.8325 C   0  0  1  0  0  0  0  0  0  0  0  0
   16.1679   -1.2357   -8.9230 O   0  0  0  0  0  0  0  0  0  0  0  0
   15.3152   -1.7699   -6.7001 C   0  0  0  0  0  0  0  0  0  0  0  0
   19.2886   -6.3918   -5.3912 H   0  0  0  0  0  0  0  0  0  0  0  0
   18.2566   -7.5882   -6.1950 H   0  0  0  0  0  0  0  0  0  0  0  0
   18.3352   -7.5495   -4.4152 H   0  0  0  0  0  0  0  0  0  0  0  0
   18.4190   -4.5814   -4.4520 H   0  0  0  0  0  0  0  0  0  0  0  0
   15.7027   -3.8991   -5.3305 H   0  0  0  0  0  0  0  0  0  0  0  0
   14.9309   -1.5804   -3.5142 H   0  0  0  0  0  0  0  0  0  0  0  0
   14.1779   -2.5439   -2.2538 H   0  0  0  0  0  0  0  0  0  0  0  0
   13.9056   -2.9533   -3.9454 H   0  0  0  0  0  0  0  0  0  0  0  0
   16.4730   -2.9864   -1.1731 H   0  0  0  0  0  0  0  0  0  0  0  0
   17.1740   -1.9503   -2.4070 H   0  0  0  0  0  0  0  0  0  0  0  0
   17.8033   -3.5790   -2.1609 H   0  0  0  0  0  0  0  0  0  0  0  0
   14.9100   -4.8171   -1.7189 H   0  0  0  0  0  0  0  0  0  0  0  0
   16.2182   -5.6128   -2.5775 H   0  0  0  0  0  0  0  0  0  0  0  0
   14.6679   -5.3449   -3.3784 H   0  0  0  0  0  0  0  0  0  0  0  0
   17.9963   -0.3404   -6.6877 H   0  0  0  0  0  0  0  0  0  0  0  0
   18.6447    1.7473   -6.2373 H   0  0  0  0  0  0  0  0  0  0  0  0
   18.0186    2.7910   -3.5403 H   0  0  0  0  0  0  0  0  0  0  0  0
   19.2617    3.3602   -4.6599 H   0  0  0  0  0  0  0  0  0  0  0  0
   15.8248    3.8085   -3.5594 H   0  0  0  0  0  0  0  0  0  0  0  0
   14.2845    5.4788   -4.4366 H   0  0  0  0  0  0  0  0  0  0  0  0
   14.8755    6.0436   -9.4238 H   0  0  0  0  0  0  0  0  0  0  0  0
   13.1834    6.4491   -9.7301 H   0  0  0  0  0  0  0  0  0  0  0  0
   13.5800    5.1608   -8.5901 H   0  0  0  0  0  0  0  0  0  0  0  0
   12.9225   10.0249   -6.8335 H   0  0  0  0  0  0  0  0  0  0  0  0
   16.9407    6.1957   -7.7344 H   0  0  0  0  0  0  0  0  0  0  0  0
   18.4799    4.5227   -6.8555 H   0  0  0  0  0  0  0  0  0  0  0  0
   15.2900    1.0585   -6.6849 H   0  0  0  0  0  0  0  0  0  0  0  0
   16.5412    1.0875   -7.9413 H   0  0  0  0  0  0  0  0  0  0  0  0
   14.3767   -0.5150   -8.2128 H   0  0  0  0  0  0  0  0  0  0  0  0
   17.1015   -1.1871   -8.6458 H   0  0  0  0  0  0  0  0  0  0  0  0
   15.3761   -2.7945   -7.0746 H   0  0  0  0  0  0  0  0  0  0  0  0
   14.4166   -1.6398   -6.0887 H   0  0  0  0  0  0  0  0  0  0  0  0
  1 34  1  0  0  0  0
  1 35  1  0  0  0  0
  1 36  1  0  0  0  0
  1  2  1  0  0  0  0
  2  3  2  0  0  0  0
  2  4  1  0  0  0  0
  4 37  1  0  0  0  0
  5  4  1  0  0  0  0
  5 38  1  0  0  0  0
  5  6  1  0  0  0  0
  5 10  1  0  0  0  0
  6  7  1  0  0  0  0
  6  8  1  0  0  0  0
  6  9  1  0  0  0  0
  7 39  1  0  0  0  0
  7 40  1  0  0  0  0
  7 41  1  0  0  0  0
  8 42  1  0  0  0  0
  8 43  1  0  0  0  0
  8 44  1  0  0  0  0
  9 45  1  0  0  0  0
  9 46  1  0  0  0  0
  9 47  1  0  0  0  0
 10 11  2  0  0  0  0
 10 12  1  0  0  0  0
 12 33  1  0  0  0  0
 13 12  1  0  0  0  0
 13 30  1  0  0  0  0
 13 48  1  0  0  0  0
 13 14  1  0  0  0  0
 14 15  2  0  0  0  0
 14 16  1  0  0  0  0
 16 49  1  0  0  0  0
 16 17  1  0  0  0  0
 17 50  1  0  0  0  0
 17 51  1  0  0  0  0
 17 18  1  0  0  0  0
 18 19  1  0  0  0  0
 18 29  2  0  0  0  0
 19 52  1  0  0  0  0
 19 20  2  0  0  0  0
 20 53  1  0  0  0  0
 20 21  1  0  0  0  0
 21 28  2  0  0  0  0
 21 22  1  0  0  0  0
 22 23  2  0  0  0  0
 22 27  1  0  0  0  0
 23 24  1  0  0  0  0
 23 25  1  0  0  0  0
 24 54  1  0  0  0  0
 24 55  1  0  0  0  0
 24 56  1  0  0  0  0
 25 26  2  0  0  0  0
 26 57  1  0  0  0  0
 26 27  1  0  0  0  0
 28 58  1  0  0  0  0
 28 29  1  0  0  0  0
 29 59  1  0  0  0  0
 31 30  1  0  0  0  0
 30 60  1  0  0  0  0
 30 61  1  0  0  0  0
 31 33  1  0  0  0  0
 31 62  1  0  0  0  0
 31 32  1  0  0  0  0
 32 63  1  0  0  0  0
 33 64  1  0  0  0  0
 33 65  1  0  0  0  0
M  ZZC   1 c1
M  ZZC   2 c2
M  ZZC   3 o1
M  ZZC   4 n1
M  ZZC   5 c3
M  ZZC   6 c4
M  ZZC   7 c5
M  ZZC   8 c6
M  ZZC   9 c7
M  ZZC  10 c8
M  ZZC  11 o2
M  ZZC  12 n2
M  ZZC  13 c9
M  ZZC  14 c10
M  ZZC  15 o3
M  ZZC  16 n3
M  ZZC  17 c11
M  ZZC  18 c12
M  ZZC  19 c13
M  ZZC  20 c14
M  ZZC  21 c15
M  ZZC  22 c16
M  ZZC  23 c17
M  ZZC  24 c18
M  ZZC  25 n4
M  ZZC  26 c19
M  ZZC  27 s1
M  ZZC  28 c20
M  ZZC  29 c21
M  ZZC  30 c22
M  ZZC  31 c23
M  ZZC  32 o4
M  ZZC  33 c24
M  ZZC  34 h11
M  ZZC  35 h12
M  ZZC  36 h13
M  ZZC  37 h01
M  ZZC  38 h31
M  ZZC  39 h51
M  ZZC  40 h52
M  ZZC  41 h53
M  ZZC  42 h61
M  ZZC  43 h62
M  ZZC  44 h63
M  ZZC  45 h71
M  ZZC  46 h72
M  ZZC  47 h73
M  ZZC  48 h91
M  ZZC  49 h02
M  ZZC  50 h111
M  ZZC  51 h112
M  ZZC  52 h131
M  ZZC  53 h141
M  ZZC  54 h181
M  ZZC  55 h182
M  ZZC  56 h183
M  ZZC  57 h191
M  ZZC  58 h201
M  ZZC  59 h211
M  ZZC  60 h221
M  ZZC  61 h222
M  ZZC  62 h231
M  ZZC  63 h41
M  ZZC  64 h241
M  ZZC  65 h242
M  ZZM   1 1
M  ZZI   1 111
M  ZZM   2 3
M  ZZI   2 121
M  ZZM   3 7
M  ZZI   3 81
M  ZZM   4 10
M  ZZI   4 211
M  ZZM   5 1
M  ZZI   5 113
M  ZZM   6 1
M  ZZI   6 110
M  ZZM   7 1
M  ZZI   7 111
M  ZZM   8 1
M  ZZI   8 111
M  ZZM   9 1
M  ZZI   9 111
M  ZZM  10 3
M  ZZI  10 121
M  ZZM  11 7
M  ZZI  11 81
M  ZZM  12 10
M  ZZI  12 192
M  ZZM  13 1
M  ZZI  13 113
M  ZZM  14 3
M  ZZI  14 121
M  ZZM  15 7
M  ZZI  15 81
M  ZZM  16 10
M  ZZI  16 211
M  ZZM  17 1
M  ZZI  17 112
M  ZZM  18 37
M  ZZI  18 124
M  ZZM  19 37
M  ZZI  19 125
M  ZZM  20 37
M  ZZI  20 125
M  ZZM  21 37
M  ZZI  21 124
M  ZZM  22 63
M  ZZI  22 104
M  ZZM  23 64
M  ZZI  23 105
M  ZZM  24 1
M  ZZI  24 111
M  ZZM  25 66
M  ZZI  25 222
M  ZZM  26 63
M  ZZI  26 104
M  ZZM  27 44
M  ZZI  27 248
M  ZZM  28 37
M  ZZI  28 125
M  ZZM  29 37
M  ZZI  29 125
M  ZZM  30 1
M  ZZI  30 112
M  ZZM  31 1
M  ZZI  31 113
M  ZZM  32 6
M  ZZI  32 60
M  ZZM  33 1
M  ZZI  33 112
M  ZZM  34 5
M  ZZI  34 1
M  ZZM  35 5
M  ZZI  35 1
M  ZZM  36 5
M  ZZI  36 1
M  ZZM  37 28
M  ZZI  37 11
M  ZZM  38 5
M  ZZI  38 1
M  ZZM  39 5
M  ZZI  39 1
M  ZZM  40 5
M  ZZI  40 1
M  ZZM  41 5
M  ZZI  41 1
M  ZZM  42 5
M  ZZI  42 1
M  ZZM  43 5
M  ZZI  43 1
M  ZZM  44 5
M  ZZI  44 1
M  ZZM  45 5
M  ZZI  45 1
M  ZZM  46 5
M  ZZI  46 1
M  ZZM  47 5
M  ZZI  47 1
M  ZZM  48 5
M  ZZI  48 1
M  ZZM  49 28
M  ZZI  49 11
M  ZZM  50 5
M  ZZI  50 1
M  ZZM  51 5
M  ZZI  51 1
M  ZZM  52 5
M  ZZI  52 1
M  ZZM  53 5
M  ZZI  53 1
M  ZZM  54 5
M  ZZI  54 1
M  ZZM  55 5
M  ZZI  55 1
M  ZZM  56 5
M  ZZI  56 1
M  ZZM  57 5
M  ZZI  57 1
M  ZZM  58 5
M  ZZI  58 1
M  ZZM  59 5
M  ZZI  59 1
M  ZZM  60 5
M  ZZI  60 1
M  ZZM  61 5
M  ZZI  61 1
M  ZZM  62 5
M  ZZI  62 1
M  ZZM  63 21
M  ZZI  63 20
M  ZZM  64 5
M  ZZI  64 1
M  ZZM  65 5
M  ZZI  65 1
M  END
> <IX>
1

> <NAME>
VHL_3MXF_24.pdb

> <Score>
-24.103824

> <Natom>
65

> <Nflex>
8

> <Hbond>
-7.777793

> <Hphob>
-6.462052

> <VwInt>
-30.145793

> <Dsolv>
21.145456

> <SolEl>
10.236417

> <Eintl>
4.390391

> <RecConf>
ND

> <projPath>
VHL_maps/

> <NAME_>
VHL_3MXF_24.pdb

$$$$
