VHL_5T8E_37.pdb
  MOLSOFT 04032206413D

 65 67  0  0  1  0  0  0  0  0999 V2000
   18.1232   -6.6596   -5.1258 C   0  0  0  0  0  0  0  0  0  0  0  0
   16.9070   -5.7872   -4.9738 C   0  0  0  0  0  0  0  0  0  0  0  0
   15.8226   -6.1479   -5.3976 O   0  0  0  0  0  0  0  0  0  0  0  0
   17.1471   -4.6095   -4.2934 N   0  0  0  0  0  0  0  0  0  0  0  0
   16.1353   -3.5748   -4.0231 C   0  0  1  0  0  0  0  0  0  0  0  0
   15.8881   -3.3914   -2.4964 C   0  0  0  0  0  0  0  0  0  0  0  0
   17.1507   -2.9349   -1.7513 C   0  0  0  0  0  0  0  0  0  0  0  0
   15.4194   -4.7351   -1.9247 C   0  0  0  0  0  0  0  0  0  0  0  0
   14.7836   -2.3722   -2.1934 C   0  0  0  0  0  0  0  0  0  0  0  0
   16.6282   -2.3300   -4.7912 C   0  0  0  0  0  0  0  0  0  0  0  0
   17.8225   -2.0594   -4.8429 O   0  0  0  0  0  0  0  0  0  0  0  0
   15.6754   -1.5580   -5.4637 N   0  0  0  0  0  0  0  0  0  0  0  0
   16.0680   -0.6450   -6.5269 C   0  0  2  0  0  0  0  0  0  0  0  0
   16.4497    0.7470   -6.0163 C   0  0  0  0  0  0  0  0  0  0  0  0
   15.9288    1.2646   -5.0375 O   0  0  0  0  0  0  0  0  0  0  0  0
   17.3801    1.3833   -6.8170 N   0  0  0  0  0  0  0  0  0  0  0  0
   17.8302    2.7388   -6.5469 C   0  0  0  0  0  0  0  0  0  0  0  0
   19.2406    3.0187   -7.0087 C   0  0  0  0  0  0  0  0  0  0  0  0
   19.6558    4.3242   -7.2626 C   0  0  0  0  0  0  0  0  0  0  0  0
   20.9654    4.6029   -7.6291 C   0  0  0  0  0  0  0  0  0  0  0  0
   21.8967    3.5791   -7.7500 C   0  0  0  0  0  0  0  0  0  0  0  0
   23.2819    3.8396   -8.1071 C   0  0  0  0  0  0  0  0  0  0  0  0
   24.3487    4.2595   -7.3255 C   0  0  0  0  0  0  0  0  0  0  0  0
   24.3160    4.5919   -5.8832 C   0  0  0  0  0  0  0  0  0  0  0  0
   25.5591    4.3403   -7.9846 N   0  0  0  0  0  0  0  0  0  0  0  0
   25.3993    4.0066   -9.2454 C   0  0  0  0  0  0  0  0  0  0  0  0
   23.8145    3.5894   -9.7213 S   0  0  0  0  0  0  0  0  0  0  0  0
   21.4831    2.2812   -7.4964 C   0  0  0  0  0  0  0  0  0  0  0  0
   20.1828    2.0052   -7.1279 C   0  0  0  0  0  0  0  0  0  0  0  0
   14.8316   -0.5734   -7.4089 C   0  0  0  0  0  0  0  0  0  0  0  0
   13.6792   -0.6932   -6.4228 C   0  0  1  0  0  0  0  0  0  0  0  0
   12.5364   -1.3073   -7.0128 O   0  0  0  0  0  0  0  0  0  0  0  0
   14.2292   -1.5849   -5.3226 C   0  0  0  0  0  0  0  0  0  0  0  0
   19.0299   -6.0571   -5.2345 H   0  0  0  0  0  0  0  0  0  0  0  0
   18.0148   -7.2823   -6.0190 H   0  0  0  0  0  0  0  0  0  0  0  0
   18.2107   -7.3048   -4.2485 H   0  0  0  0  0  0  0  0  0  0  0  0
   18.1074   -4.4003   -4.0450 H   0  0  0  0  0  0  0  0  0  0  0  0
   15.2052   -3.9200   -4.4745 H   0  0  0  0  0  0  0  0  0  0  0  0
   16.9706   -2.8530   -0.6745 H   0  0  0  0  0  0  0  0  0  0  0  0
   17.4958   -1.9559   -2.0977 H   0  0  0  0  0  0  0  0  0  0  0  0
   17.9720   -3.6370   -1.8811 H   0  0  0  0  0  0  0  0  0  0  0  0
   15.1656   -4.6419   -0.8662 H   0  0  0  0  0  0  0  0  0  0  0  0
   16.1864   -5.5061   -2.0180 H   0  0  0  0  0  0  0  0  0  0  0  0
   14.5266   -5.1019   -2.4411 H   0  0  0  0  0  0  0  0  0  0  0  0
   15.0675   -1.3631   -2.5044 H   0  0  0  0  0  0  0  0  0  0  0  0
   14.5753   -2.3178   -1.1197 H   0  0  0  0  0  0  0  0  0  0  0  0
   13.8432   -2.6458   -2.6811 H   0  0  0  0  0  0  0  0  0  0  0  0
   16.9161   -1.0669   -7.0762 H   0  0  0  0  0  0  0  0  0  0  0  0
   17.7725    0.8854   -7.6113 H   0  0  0  0  0  0  0  0  0  0  0  0
   17.1293    3.4021   -7.0654 H   0  0  0  0  0  0  0  0  0  0  0  0
   17.7536    2.9387   -5.4729 H   0  0  0  0  0  0  0  0  0  0  0  0
   18.9525    5.1465   -7.1682 H   0  0  0  0  0  0  0  0  0  0  0  0
   21.2566    5.6318   -7.8188 H   0  0  0  0  0  0  0  0  0  0  0  0
   25.2725    5.0076   -5.5535 H   0  0  0  0  0  0  0  0  0  0  0  0
   24.1199    3.6975   -5.2872 H   0  0  0  0  0  0  0  0  0  0  0  0
   23.5382    5.3300   -5.6677 H   0  0  0  0  0  0  0  0  0  0  0  0
   26.2189    3.9976   -9.9496 H   0  0  0  0  0  0  0  0  0  0  0  0
   22.1810    1.4579   -7.5854 H   0  0  0  0  0  0  0  0  0  0  0  0
   19.9135    0.9740   -6.9322 H   0  0  0  0  0  0  0  0  0  0  0  0
   14.7666    0.3417   -8.0069 H   0  0  0  0  0  0  0  0  0  0  0  0
   14.8196   -1.4190   -8.1052 H   0  0  0  0  0  0  0  0  0  0  0  0
   13.3875    0.2852   -6.0238 H   0  0  0  0  0  0  0  0  0  0  0  0
   12.1917   -0.7125   -7.7032 H   0  0  0  0  0  0  0  0  0  0  0  0
   13.8464   -2.6059   -5.3600 H   0  0  0  0  0  0  0  0  0  0  0  0
   13.9577   -1.1608   -4.3559 H   0  0  0  0  0  0  0  0  0  0  0  0
  1 34  1  0  0  0  0
  1 35  1  0  0  0  0
  1 36  1  0  0  0  0
  1  2  1  0  0  0  0
  2  3  2  0  0  0  0
  2  4  1  0  0  0  0
  4 37  1  0  0  0  0
  5  4  1  0  0  0  0
  5 38  1  0  0  0  0
  5  6  1  0  0  0  0
  5 10  1  0  0  0  0
  6  7  1  0  0  0  0
  6  8  1  0  0  0  0
  6  9  1  0  0  0  0
  7 39  1  0  0  0  0
  7 40  1  0  0  0  0
  7 41  1  0  0  0  0
  8 42  1  0  0  0  0
  8 43  1  0  0  0  0
  8 44  1  0  0  0  0
  9 45  1  0  0  0  0
  9 46  1  0  0  0  0
  9 47  1  0  0  0  0
 10 11  2  0  0  0  0
 10 12  1  0  0  0  0
 12 33  1  0  0  0  0
 13 12  1  0  0  0  0
 13 30  1  0  0  0  0
 13 48  1  0  0  0  0
 13 14  1  0  0  0  0
 14 15  2  0  0  0  0
 14 16  1  0  0  0  0
 16 49  1  0  0  0  0
 16 17  1  0  0  0  0
 17 50  1  0  0  0  0
 17 51  1  0  0  0  0
 17 18  1  0  0  0  0
 18 19  1  0  0  0  0
 18 29  2  0  0  0  0
 19 52  1  0  0  0  0
 19 20  2  0  0  0  0
 20 53  1  0  0  0  0
 20 21  1  0  0  0  0
 21 28  2  0  0  0  0
 21 22  1  0  0  0  0
 22 23  2  0  0  0  0
 22 27  1  0  0  0  0
 23 24  1  0  0  0  0
 23 25  1  0  0  0  0
 24 54  1  0  0  0  0
 24 55  1  0  0  0  0
 24 56  1  0  0  0  0
 25 26  2  0  0  0  0
 26 57  1  0  0  0  0
 26 27  1  0  0  0  0
 28 58  1  0  0  0  0
 28 29  1  0  0  0  0
 29 59  1  0  0  0  0
 31 30  1  0  0  0  0
 30 60  1  0  0  0  0
 30 61  1  0  0  0  0
 31 33  1  0  0  0  0
 31 62  1  0  0  0  0
 31 32  1  0  0  0  0
 32 63  1  0  0  0  0
 33 64  1  0  0  0  0
 33 65  1  0  0  0  0
M  ZZC   1 c1
M  ZZC   2 c2
M  ZZC   3 o1
M  ZZC   4 n1
M  ZZC   5 c3
M  ZZC   6 c4
M  ZZC   7 c5
M  ZZC   8 c6
M  ZZC   9 c7
M  ZZC  10 c8
M  ZZC  11 o2
M  ZZC  12 n2
M  ZZC  13 c9
M  ZZC  14 c10
M  ZZC  15 o3
M  ZZC  16 n3
M  ZZC  17 c11
M  ZZC  18 c12
M  ZZC  19 c13
M  ZZC  20 c14
M  ZZC  21 c15
M  ZZC  22 c16
M  ZZC  23 c17
M  ZZC  24 c18
M  ZZC  25 n4
M  ZZC  26 c19
M  ZZC  27 s1
M  ZZC  28 c20
M  ZZC  29 c21
M  ZZC  30 c22
M  ZZC  31 c23
M  ZZC  32 o4
M  ZZC  33 c24
M  ZZC  34 h11
M  ZZC  35 h12
M  ZZC  36 h13
M  ZZC  37 h01
M  ZZC  38 h31
M  ZZC  39 h51
M  ZZC  40 h52
M  ZZC  41 h53
M  ZZC  42 h61
M  ZZC  43 h62
M  ZZC  44 h63
M  ZZC  45 h71
M  ZZC  46 h72
M  ZZC  47 h73
M  ZZC  48 h91
M  ZZC  49 h02
M  ZZC  50 h111
M  ZZC  51 h112
M  ZZC  52 h131
M  ZZC  53 h141
M  ZZC  54 h181
M  ZZC  55 h182
M  ZZC  56 h183
M  ZZC  57 h191
M  ZZC  58 h201
M  ZZC  59 h211
M  ZZC  60 h221
M  ZZC  61 h222
M  ZZC  62 h231
M  ZZC  63 h41
M  ZZC  64 h241
M  ZZC  65 h242
M  ZZM   1 1
M  ZZI   1 111
M  ZZM   2 3
M  ZZI   2 121
M  ZZM   3 7
M  ZZI   3 81
M  ZZM   4 10
M  ZZI   4 211
M  ZZM   5 1
M  ZZI   5 113
M  ZZM   6 1
M  ZZI   6 110
M  ZZM   7 1
M  ZZI   7 111
M  ZZM   8 1
M  ZZI   8 111
M  ZZM   9 1
M  ZZI   9 111
M  ZZM  10 3
M  ZZI  10 121
M  ZZM  11 7
M  ZZI  11 81
M  ZZM  12 10
M  ZZI  12 192
M  ZZM  13 1
M  ZZI  13 113
M  ZZM  14 3
M  ZZI  14 121
M  ZZM  15 7
M  ZZI  15 81
M  ZZM  16 10
M  ZZI  16 211
M  ZZM  17 1
M  ZZI  17 112
M  ZZM  18 37
M  ZZI  18 124
M  ZZM  19 37
M  ZZI  19 125
M  ZZM  20 37
M  ZZI  20 125
M  ZZM  21 37
M  ZZI  21 124
M  ZZM  22 63
M  ZZI  22 104
M  ZZM  23 64
M  ZZI  23 105
M  ZZM  24 1
M  ZZI  24 111
M  ZZM  25 66
M  ZZI  25 222
M  ZZM  26 63
M  ZZI  26 104
M  ZZM  27 44
M  ZZI  27 248
M  ZZM  28 37
M  ZZI  28 125
M  ZZM  29 37
M  ZZI  29 125
M  ZZM  30 1
M  ZZI  30 112
M  ZZM  31 1
M  ZZI  31 113
M  ZZM  32 6
M  ZZI  32 60
M  ZZM  33 1
M  ZZI  33 112
M  ZZM  34 5
M  ZZI  34 1
M  ZZM  35 5
M  ZZI  35 1
M  ZZM  36 5
M  ZZI  36 1
M  ZZM  37 28
M  ZZI  37 11
M  ZZM  38 5
M  ZZI  38 1
M  ZZM  39 5
M  ZZI  39 1
M  ZZM  40 5
M  ZZI  40 1
M  ZZM  41 5
M  ZZI  41 1
M  ZZM  42 5
M  ZZI  42 1
M  ZZM  43 5
M  ZZI  43 1
M  ZZM  44 5
M  ZZI  44 1
M  ZZM  45 5
M  ZZI  45 1
M  ZZM  46 5
M  ZZI  46 1
M  ZZM  47 5
M  ZZI  47 1
M  ZZM  48 5
M  ZZI  48 1
M  ZZM  49 28
M  ZZI  49 11
M  ZZM  50 5
M  ZZI  50 1
M  ZZM  51 5
M  ZZI  51 1
M  ZZM  52 5
M  ZZI  52 1
M  ZZM  53 5
M  ZZI  53 1
M  ZZM  54 5
M  ZZI  54 1
M  ZZM  55 5
M  ZZI  55 1
M  ZZM  56 5
M  ZZI  56 1
M  ZZM  57 5
M  ZZI  57 1
M  ZZM  58 5
M  ZZI  58 1
M  ZZM  59 5
M  ZZI  59 1
M  ZZM  60 5
M  ZZI  60 1
M  ZZM  61 5
M  ZZI  61 1
M  ZZM  62 5
M  ZZI  62 1
M  ZZM  63 21
M  ZZI  63 20
M  ZZM  64 5
M  ZZI  64 1
M  ZZM  65 5
M  ZZI  65 1
M  END
> <IX>
1

> <NAME>
VHL_5T8E_37.pdb

> <Score>
-11.607646

> <Natom>
65

> <Nflex>
8

> <Hbond>
-4.956873

> <Hphob>
-6.454886

> <VwInt>
-28.152597

> <Dsolv>
16.88639

> <SolEl>
17.038507

> <Eintl>
7.834009

> <RecConf>
ND

> <projPath>
VHL_maps/

> <NAME_>
VHL_5T8E_37.pdb

$$$$
