VHL_3KRR_5.pdb
  MOLSOFT 04032206373D

 65 67  0  0  1  0  0  0  0  0999 V2000
   11.7472   -0.5868   -6.1764 C   0  0  0  0  0  0  0  0  0  0  0  0
   13.1175   -1.1597   -5.9463 C   0  0  0  0  0  0  0  0  0  0  0  0
   13.6153   -1.9394   -6.7414 O   0  0  0  0  0  0  0  0  0  0  0  0
   13.7096   -0.7456   -4.7695 N   0  0  0  0  0  0  0  0  0  0  0  0
   15.0814   -1.1135   -4.3986 C   0  0  2  0  0  0  0  0  0  0  0  0
   15.1510   -2.1444   -3.2251 C   0  0  0  0  0  0  0  0  0  0  0  0
   14.2555   -1.7736   -2.0274 C   0  0  0  0  0  0  0  0  0  0  0  0
   16.6023   -2.2976   -2.7369 C   0  0  0  0  0  0  0  0  0  0  0  0
   14.6978   -3.5199   -3.7247 C   0  0  0  0  0  0  0  0  0  0  0  0
   15.7676    0.2208   -4.0615 C   0  0  0  0  0  0  0  0  0  0  0  0
   15.4926    0.8254   -3.0338 O   0  0  0  0  0  0  0  0  0  0  0  0
   16.6342    0.7842   -5.0027 N   0  0  0  0  0  0  0  0  0  0  0  0
   17.0394    0.2946   -6.3302 C   0  0  1  0  0  0  0  0  0  0  0  0
   16.0469    0.6024   -7.4636 C   0  0  0  0  0  0  0  0  0  0  0  0
   16.2633    0.2854   -8.6255 O   0  0  0  0  0  0  0  0  0  0  0  0
   14.9402    1.3169   -7.0594 N   0  0  0  0  0  0  0  0  0  0  0  0
   14.0210    1.9788   -7.9617 C   0  0  0  0  0  0  0  0  0  0  0  0
   14.0611    3.4760   -7.7951 C   0  0  0  0  0  0  0  0  0  0  0  0
   13.5982    4.3177   -8.8035 C   0  0  0  0  0  0  0  0  0  0  0  0
   13.5695    5.6958   -8.6268 C   0  0  0  0  0  0  0  0  0  0  0  0
   14.0010    6.2609   -7.4296 C   0  0  0  0  0  0  0  0  0  0  0  0
   13.9394    7.6874   -7.1562 C   0  0  0  0  0  0  0  0  0  0  0  0
   13.3493    8.3590   -6.0926 C   0  0  0  0  0  0  0  0  0  0  0  0
   12.5255    7.7642   -5.0111 C   0  0  0  0  0  0  0  0  0  0  0  0
   13.5921    9.7169   -6.0560 N   0  0  0  0  0  0  0  0  0  0  0  0
   14.3265   10.0607   -7.0899 C   0  0  0  0  0  0  0  0  0  0  0  0
   14.7488    8.8085   -8.1743 S   0  0  0  0  0  0  0  0  0  0  0  0
   14.4881    5.4221   -6.4400 C   0  0  0  0  0  0  0  0  0  0  0  0
   14.5004    4.0577   -6.6097 C   0  0  0  0  0  0  0  0  0  0  0  0
   18.3321    1.0576   -6.5978 C   0  0  0  0  0  0  0  0  0  0  0  0
   18.1581    2.3744   -5.8781 C   0  0  2  0  0  0  0  0  0  0  0  0
   19.4397    2.9294   -5.5822 O   0  0  0  0  0  0  0  0  0  0  0  0
   17.3875    1.9715   -4.6343 C   0  0  0  0  0  0  0  0  0  0  0  0
   11.6053    0.3393   -5.6133 H   0  0  0  0  0  0  0  0  0  0  0  0
   10.9977   -1.3182   -5.8702 H   0  0  0  0  0  0  0  0  0  0  0  0
   11.6187   -0.3678   -7.2400 H   0  0  0  0  0  0  0  0  0  0  0  0
   13.1931   -0.1340   -4.1444 H   0  0  0  0  0  0  0  0  0  0  0  0
   15.5604   -1.5569   -5.2745 H   0  0  0  0  0  0  0  0  0  0  0  0
   14.5590   -0.8165   -1.5909 H   0  0  0  0  0  0  0  0  0  0  0  0
   14.3138   -2.5171   -1.2273 H   0  0  0  0  0  0  0  0  0  0  0  0
   13.2046   -1.6671   -2.3048 H   0  0  0  0  0  0  0  0  0  0  0  0
   16.6924   -3.0978   -1.9946 H   0  0  0  0  0  0  0  0  0  0  0  0
   16.9798   -1.3851   -2.2661 H   0  0  0  0  0  0  0  0  0  0  0  0
   17.2768   -2.5450   -3.5636 H   0  0  0  0  0  0  0  0  0  0  0  0
   14.7060   -4.2665   -2.9232 H   0  0  0  0  0  0  0  0  0  0  0  0
   15.3629   -3.8913   -4.5080 H   0  0  0  0  0  0  0  0  0  0  0  0
   13.6817   -3.4814   -4.1242 H   0  0  0  0  0  0  0  0  0  0  0  0
   17.2077   -0.7863   -6.3074 H   0  0  0  0  0  0  0  0  0  0  0  0
   14.7699    1.3991   -6.0649 H   0  0  0  0  0  0  0  0  0  0  0  0
   14.2640    1.7089   -8.9908 H   0  0  0  0  0  0  0  0  0  0  0  0
   13.0163    1.6161   -7.7312 H   0  0  0  0  0  0  0  0  0  0  0  0
   13.2416    3.8980   -9.7399 H   0  0  0  0  0  0  0  0  0  0  0  0
   13.1867    6.3227   -9.4271 H   0  0  0  0  0  0  0  0  0  0  0  0
   11.6259    7.2945   -5.4186 H   0  0  0  0  0  0  0  0  0  0  0  0
   12.2095    8.5225   -4.2955 H   0  0  0  0  0  0  0  0  0  0  0  0
   13.0818    7.0105   -4.4490 H   0  0  0  0  0  0  0  0  0  0  0  0
   14.6506   11.0788   -7.2513 H   0  0  0  0  0  0  0  0  0  0  0  0
   14.8491    5.8281   -5.4999 H   0  0  0  0  0  0  0  0  0  0  0  0
   14.8494    3.4598   -5.7771 H   0  0  0  0  0  0  0  0  0  0  0  0
   19.1857    0.5228   -6.1760 H   0  0  0  0  0  0  0  0  0  0  0  0
   18.5520    1.2225   -7.6534 H   0  0  0  0  0  0  0  0  0  0  0  0
   17.5893    3.0827   -6.4910 H   0  0  0  0  0  0  0  0  0  0  0  0
   19.3158    3.6755   -4.9701 H   0  0  0  0  0  0  0  0  0  0  0  0
   16.7156    2.7635   -4.2876 H   0  0  0  0  0  0  0  0  0  0  0  0
   18.0554    1.7187   -3.8021 H   0  0  0  0  0  0  0  0  0  0  0  0
  1 34  1  0  0  0  0
  1 35  1  0  0  0  0
  1 36  1  0  0  0  0
  1  2  1  0  0  0  0
  2  3  2  0  0  0  0
  2  4  1  0  0  0  0
  4 37  1  0  0  0  0
  5  4  1  0  0  0  0
  5 38  1  0  0  0  0
  5  6  1  0  0  0  0
  5 10  1  0  0  0  0
  6  7  1  0  0  0  0
  6  8  1  0  0  0  0
  6  9  1  0  0  0  0
  7 39  1  0  0  0  0
  7 40  1  0  0  0  0
  7 41  1  0  0  0  0
  8 42  1  0  0  0  0
  8 43  1  0  0  0  0
  8 44  1  0  0  0  0
  9 45  1  0  0  0  0
  9 46  1  0  0  0  0
  9 47  1  0  0  0  0
 10 11  2  0  0  0  0
 10 12  1  0  0  0  0
 12 33  1  0  0  0  0
 13 12  1  0  0  0  0
 13 30  1  0  0  0  0
 13 48  1  0  0  0  0
 13 14  1  0  0  0  0
 14 15  2  0  0  0  0
 14 16  1  0  0  0  0
 16 49  1  0  0  0  0
 16 17  1  0  0  0  0
 17 50  1  0  0  0  0
 17 51  1  0  0  0  0
 17 18  1  0  0  0  0
 18 19  1  0  0  0  0
 18 29  2  0  0  0  0
 19 52  1  0  0  0  0
 19 20  2  0  0  0  0
 20 53  1  0  0  0  0
 20 21  1  0  0  0  0
 21 28  2  0  0  0  0
 21 22  1  0  0  0  0
 22 23  2  0  0  0  0
 22 27  1  0  0  0  0
 23 24  1  0  0  0  0
 23 25  1  0  0  0  0
 24 54  1  0  0  0  0
 24 55  1  0  0  0  0
 24 56  1  0  0  0  0
 25 26  2  0  0  0  0
 26 57  1  0  0  0  0
 26 27  1  0  0  0  0
 28 58  1  0  0  0  0
 28 29  1  0  0  0  0
 29 59  1  0  0  0  0
 31 30  1  0  0  0  0
 30 60  1  0  0  0  0
 30 61  1  0  0  0  0
 31 33  1  0  0  0  0
 31 62  1  0  0  0  0
 31 32  1  0  0  0  0
 32 63  1  0  0  0  0
 33 64  1  0  0  0  0
 33 65  1  0  0  0  0
M  ZZC   1 c1
M  ZZC   2 c2
M  ZZC   3 o1
M  ZZC   4 n1
M  ZZC   5 c3
M  ZZC   6 c4
M  ZZC   7 c5
M  ZZC   8 c6
M  ZZC   9 c7
M  ZZC  10 c8
M  ZZC  11 o2
M  ZZC  12 n2
M  ZZC  13 c9
M  ZZC  14 c10
M  ZZC  15 o3
M  ZZC  16 n3
M  ZZC  17 c11
M  ZZC  18 c12
M  ZZC  19 c13
M  ZZC  20 c14
M  ZZC  21 c15
M  ZZC  22 c16
M  ZZC  23 c17
M  ZZC  24 c18
M  ZZC  25 n4
M  ZZC  26 c19
M  ZZC  27 s1
M  ZZC  28 c20
M  ZZC  29 c21
M  ZZC  30 c22
M  ZZC  31 c23
M  ZZC  32 o4
M  ZZC  33 c24
M  ZZC  34 h11
M  ZZC  35 h12
M  ZZC  36 h13
M  ZZC  37 h01
M  ZZC  38 h31
M  ZZC  39 h51
M  ZZC  40 h52
M  ZZC  41 h53
M  ZZC  42 h61
M  ZZC  43 h62
M  ZZC  44 h63
M  ZZC  45 h71
M  ZZC  46 h72
M  ZZC  47 h73
M  ZZC  48 h91
M  ZZC  49 h02
M  ZZC  50 h111
M  ZZC  51 h112
M  ZZC  52 h131
M  ZZC  53 h141
M  ZZC  54 h181
M  ZZC  55 h182
M  ZZC  56 h183
M  ZZC  57 h191
M  ZZC  58 h201
M  ZZC  59 h211
M  ZZC  60 h221
M  ZZC  61 h222
M  ZZC  62 h231
M  ZZC  63 h41
M  ZZC  64 h241
M  ZZC  65 h242
M  ZZM   1 1
M  ZZI   1 111
M  ZZM   2 3
M  ZZI   2 121
M  ZZM   3 7
M  ZZI   3 81
M  ZZM   4 10
M  ZZI   4 211
M  ZZM   5 1
M  ZZI   5 113
M  ZZM   6 1
M  ZZI   6 110
M  ZZM   7 1
M  ZZI   7 111
M  ZZM   8 1
M  ZZI   8 111
M  ZZM   9 1
M  ZZI   9 111
M  ZZM  10 3
M  ZZI  10 121
M  ZZM  11 7
M  ZZI  11 81
M  ZZM  12 10
M  ZZI  12 192
M  ZZM  13 1
M  ZZI  13 113
M  ZZM  14 3
M  ZZI  14 121
M  ZZM  15 7
M  ZZI  15 81
M  ZZM  16 10
M  ZZI  16 211
M  ZZM  17 1
M  ZZI  17 112
M  ZZM  18 37
M  ZZI  18 124
M  ZZM  19 37
M  ZZI  19 125
M  ZZM  20 37
M  ZZI  20 125
M  ZZM  21 37
M  ZZI  21 124
M  ZZM  22 63
M  ZZI  22 104
M  ZZM  23 64
M  ZZI  23 105
M  ZZM  24 1
M  ZZI  24 111
M  ZZM  25 66
M  ZZI  25 222
M  ZZM  26 63
M  ZZI  26 104
M  ZZM  27 44
M  ZZI  27 248
M  ZZM  28 37
M  ZZI  28 125
M  ZZM  29 37
M  ZZI  29 125
M  ZZM  30 1
M  ZZI  30 112
M  ZZM  31 1
M  ZZI  31 113
M  ZZM  32 6
M  ZZI  32 60
M  ZZM  33 1
M  ZZI  33 112
M  ZZM  34 5
M  ZZI  34 1
M  ZZM  35 5
M  ZZI  35 1
M  ZZM  36 5
M  ZZI  36 1
M  ZZM  37 28
M  ZZI  37 11
M  ZZM  38 5
M  ZZI  38 1
M  ZZM  39 5
M  ZZI  39 1
M  ZZM  40 5
M  ZZI  40 1
M  ZZM  41 5
M  ZZI  41 1
M  ZZM  42 5
M  ZZI  42 1
M  ZZM  43 5
M  ZZI  43 1
M  ZZM  44 5
M  ZZI  44 1
M  ZZM  45 5
M  ZZI  45 1
M  ZZM  46 5
M  ZZI  46 1
M  ZZM  47 5
M  ZZI  47 1
M  ZZM  48 5
M  ZZI  48 1
M  ZZM  49 28
M  ZZI  49 11
M  ZZM  50 5
M  ZZI  50 1
M  ZZM  51 5
M  ZZI  51 1
M  ZZM  52 5
M  ZZI  52 1
M  ZZM  53 5
M  ZZI  53 1
M  ZZM  54 5
M  ZZI  54 1
M  ZZM  55 5
M  ZZI  55 1
M  ZZM  56 5
M  ZZI  56 1
M  ZZM  57 5
M  ZZI  57 1
M  ZZM  58 5
M  ZZI  58 1
M  ZZM  59 5
M  ZZI  59 1
M  ZZM  60 5
M  ZZI  60 1
M  ZZM  61 5
M  ZZI  61 1
M  ZZM  62 5
M  ZZI  62 1
M  ZZM  63 21
M  ZZI  63 20
M  ZZM  64 5
M  ZZI  64 1
M  ZZM  65 5
M  ZZI  65 1
M  END
> <IX>
1

> <NAME>
VHL_3KRR_5.pdb

> <Score>
-11.08534

> <Natom>
65

> <Nflex>
8

> <Hbond>
-4.228092

> <Hphob>
-6.959722

> <VwInt>
-29.818153

> <Dsolv>
17.636777

> <SolEl>
16.528774

> <Eintl>
8.593875

> <RecConf>
ND

> <projPath>
VHL_maps/

> <NAME_>
VHL_3KRR_5.pdb

$$$$
