VHL_5EU1_27.pdb
  MOLSOFT 04032206413D

 70 73  0  0  1  0  0  0  0  0999 V2000
   18.5389   -5.6149   -6.2400 F   0  0  0  0  0  0  0  0  0  0  0  0
   17.4998   -6.2015   -5.5256 C   0  0  0  0  0  0  0  0  0  0  0  0
   16.4370   -5.2771   -5.0561 C   0  0  0  0  0  0  0  0  0  0  0  0
   15.2731   -5.4175   -5.4146 O   0  0  0  0  0  0  0  0  0  0  0  0
   16.8971   -4.2681   -4.2372 N   0  0  0  0  0  0  0  0  0  0  0  0
   16.0559   -3.1289   -3.8566 C   0  0  1  0  0  0  0  0  0  0  0  0
   16.0411   -2.8683   -2.3235 C   0  0  0  0  0  0  0  0  0  0  0  0
   15.6365   -4.1619   -1.6006 C   0  0  0  0  0  0  0  0  0  0  0  0
   17.4057   -2.4123   -1.7880 C   0  0  0  0  0  0  0  0  0  0  0  0
   15.0006   -1.7976   -1.9645 C   0  0  0  0  0  0  0  0  0  0  0  0
   16.5719   -1.9657   -4.7308 C   0  0  0  0  0  0  0  0  0  0  0  0
   17.7723   -1.7389   -4.8320 O   0  0  0  0  0  0  0  0  0  0  0  0
   15.6205   -1.2303   -5.4410 N   0  0  0  0  0  0  0  0  0  0  0  0
   16.0097   -0.3345   -6.5232 C   0  0  2  0  0  0  0  0  0  0  0  0
   16.3946    1.0622   -6.0195 C   0  0  0  0  0  0  0  0  0  0  0  0
   15.7286    1.6796   -5.1992 O   0  0  0  0  0  0  0  0  0  0  0  0
   17.5374    1.5712   -6.6092 N   0  0  0  0  0  0  0  0  0  0  0  0
   18.0720    2.8732   -6.2433 C   0  0  0  0  0  0  0  0  0  0  0  0
   19.3527    3.2419   -6.9586 C   0  0  0  0  0  0  0  0  0  0  0  0
   20.3831    2.3324   -7.1422 C   0  0  0  0  0  0  0  0  0  0  0  0
   20.2301    1.0441   -6.6880 O   0  0  0  0  0  0  0  0  0  0  0  0
   21.5714    2.6609   -7.7614 C   0  0  0  0  0  0  0  0  0  0  0  0
   21.7997    3.9519   -8.2189 C   0  0  0  0  0  0  0  0  0  0  0  0
   23.0635    4.2917   -8.8762 C   0  0  0  0  0  0  0  0  0  0  0  0
   23.3442    5.0835   -9.9865 C   0  0  0  0  0  0  0  0  0  0  0  0
   22.3860    5.8301  -10.8357 C   0  0  0  0  0  0  0  0  0  0  0  0
   24.6780    5.1506  -10.3390 N   0  0  0  0  0  0  0  0  0  0  0  0
   25.3963    4.4220   -9.5169 C   0  0  0  0  0  0  0  0  0  0  0  0
   24.5416    3.6367   -8.2704 S   0  0  0  0  0  0  0  0  0  0  0  0
   20.7786    4.8834   -8.0320 C   0  0  0  0  0  0  0  0  0  0  0  0
   19.5814    4.5379   -7.4143 C   0  0  0  0  0  0  0  0  0  0  0  0
   14.7686   -0.2729   -7.4016 C   0  0  0  0  0  0  0  0  0  0  0  0
   13.6137   -0.4279   -6.4217 C   0  0  1  0  0  0  0  0  0  0  0  0
   12.4767   -1.0377   -7.0314 O   0  0  0  0  0  0  0  0  0  0  0  0
   14.1753   -1.3466   -5.3514 C   0  0  0  0  0  0  0  0  0  0  0  0
   17.9156   -7.3931   -4.7120 C   0  0  0  0  0  0  0  0  0  0  0  0
   17.1261   -7.5915   -5.9641 C   0  0  0  0  0  0  0  0  0  0  0  0
   17.8954   -4.2264   -4.0497 H   0  0  0  0  0  0  0  0  0  0  0  0
   15.0385   -3.3829   -4.1586 H   0  0  0  0  0  0  0  0  0  0  0  0
   15.5080   -3.9935   -0.5268 H   0  0  0  0  0  0  0  0  0  0  0  0
   16.3893   -4.9448   -1.7190 H   0  0  0  0  0  0  0  0  0  0  0  0
   14.6913   -4.5582   -1.9846 H   0  0  0  0  0  0  0  0  0  0  0  0
   17.3916   -2.3118   -0.6980 H   0  0  0  0  0  0  0  0  0  0  0  0
   17.7028   -1.4412   -2.1951 H   0  0  0  0  0  0  0  0  0  0  0  0
   18.1912   -3.1279   -2.0324 H   0  0  0  0  0  0  0  0  0  0  0  0
   15.2362   -0.8328   -2.4236 H   0  0  0  0  0  0  0  0  0  0  0  0
   14.9527   -1.6334   -0.8829 H   0  0  0  0  0  0  0  0  0  0  0  0
   13.9963   -2.0910   -2.2861 H   0  0  0  0  0  0  0  0  0  0  0  0
   16.8527   -0.7698   -7.0718 H   0  0  0  0  0  0  0  0  0  0  0  0
   18.1044    0.9686   -7.2002 H   0  0  0  0  0  0  0  0  0  0  0  0
   17.2896    3.6102   -6.4553 H   0  0  0  0  0  0  0  0  0  0  0  0
   18.2427    2.8800   -5.1611 H   0  0  0  0  0  0  0  0  0  0  0  0
   20.5284    0.4608   -7.4087 H   0  0  0  0  0  0  0  0  0  0  0  0
   22.3219    1.8885   -7.8786 H   0  0  0  0  0  0  0  0  0  0  0  0
   22.8530    6.1346  -11.7770 H   0  0  0  0  0  0  0  0  0  0  0  0
   22.0414    6.7352  -10.3282 H   0  0  0  0  0  0  0  0  0  0  0  0
   21.5172    5.2178  -11.0882 H   0  0  0  0  0  0  0  0  0  0  0  0
   26.4682    4.3240   -9.6146 H   0  0  0  0  0  0  0  0  0  0  0  0
   20.9093    5.9109   -8.3551 H   0  0  0  0  0  0  0  0  0  0  0  0
   18.8205    5.3023   -7.2852 H   0  0  0  0  0  0  0  0  0  0  0  0
   14.6887    0.6480   -7.9890 H   0  0  0  0  0  0  0  0  0  0  0  0
   14.7747   -1.1095   -8.1088 H   0  0  0  0  0  0  0  0  0  0  0  0
   13.3153    0.5361   -5.9948 H   0  0  0  0  0  0  0  0  0  0  0  0
   12.1613   -0.4560   -7.7460 H   0  0  0  0  0  0  0  0  0  0  0  0
   13.8704   -2.3846   -5.5018 H   0  0  0  0  0  0  0  0  0  0  0  0
   13.8398   -1.0408   -4.3584 H   0  0  0  0  0  0  0  0  0  0  0  0
   18.9570   -7.6786   -4.7468 H   0  0  0  0  0  0  0  0  0  0  0  0
   17.4233   -7.5655   -3.7658 H   0  0  0  0  0  0  0  0  0  0  0  0
   16.1014   -7.9127   -5.8568 H   0  0  0  0  0  0  0  0  0  0  0  0
   17.6280   -7.9807   -6.8345 H   0  0  0  0  0  0  0  0  0  0  0  0
  2  1  1  0  0  0  0
  2 36  1  0  0  0  0
  2  3  1  0  0  0  0
  2 37  1  0  0  0  0
  3  4  2  0  0  0  0
  3  5  1  0  0  0  0
  5 38  1  0  0  0  0
  6  5  1  0  0  0  0
  6 39  1  0  0  0  0
  6  7  1  0  0  0  0
  6 11  1  0  0  0  0
  7  8  1  0  0  0  0
  7  9  1  0  0  0  0
  7 10  1  0  0  0  0
  8 40  1  0  0  0  0
  8 41  1  0  0  0  0
  8 42  1  0  0  0  0
  9 43  1  0  0  0  0
  9 44  1  0  0  0  0
  9 45  1  0  0  0  0
 10 46  1  0  0  0  0
 10 47  1  0  0  0  0
 10 48  1  0  0  0  0
 11 12  2  0  0  0  0
 11 13  1  0  0  0  0
 13 35  1  0  0  0  0
 14 13  1  0  0  0  0
 14 32  1  0  0  0  0
 14 49  1  0  0  0  0
 14 15  1  0  0  0  0
 15 16  2  0  0  0  0
 15 17  1  0  0  0  0
 17 50  1  0  0  0  0
 17 18  1  0  0  0  0
 18 51  1  0  0  0  0
 18 52  1  0  0  0  0
 18 19  1  0  0  0  0
 19 20  2  0  0  0  0
 19 31  1  0  0  0  0
 20 21  1  0  0  0  0
 20 22  1  0  0  0  0
 21 53  1  0  0  0  0
 22 54  1  0  0  0  0
 22 23  2  0  0  0  0
 23 30  1  0  0  0  0
 23 24  1  0  0  0  0
 24 25  2  0  0  0  0
 24 29  1  0  0  0  0
 25 26  1  0  0  0  0
 25 27  1  0  0  0  0
 26 55  1  0  0  0  0
 26 56  1  0  0  0  0
 26 57  1  0  0  0  0
 27 28  2  0  0  0  0
 28 58  1  0  0  0  0
 28 29  1  0  0  0  0
 30 59  1  0  0  0  0
 30 31  2  0  0  0  0
 31 60  1  0  0  0  0
 33 32  1  0  0  0  0
 32 61  1  0  0  0  0
 32 62  1  0  0  0  0
 33 35  1  0  0  0  0
 33 63  1  0  0  0  0
 33 34  1  0  0  0  0
 34 64  1  0  0  0  0
 35 65  1  0  0  0  0
 35 66  1  0  0  0  0
 36 67  1  0  0  0  0
 36 68  1  0  0  0  0
 36 37  1  0  0  0  0
 37 69  1  0  0  0  0
 37 70  1  0  0  0  0
M  ZZC   1 f1
M  ZZC   2 c1
M  ZZC   3 c2
M  ZZC   4 o1
M  ZZC   5 n1
M  ZZC   6 c3
M  ZZC   7 c4
M  ZZC   8 c5
M  ZZC   9 c6
M  ZZC  10 c7
M  ZZC  11 c8
M  ZZC  12 o2
M  ZZC  13 n2
M  ZZC  14 c9
M  ZZC  15 c10
M  ZZC  16 o3
M  ZZC  17 n3
M  ZZC  18 c11
M  ZZC  19 c12
M  ZZC  20 c13
M  ZZC  21 o4
M  ZZC  22 c14
M  ZZC  23 c15
M  ZZC  24 c16
M  ZZC  25 c17
M  ZZC  26 c18
M  ZZC  27 n4
M  ZZC  28 c19
M  ZZC  29 s1
M  ZZC  30 c20
M  ZZC  31 c21
M  ZZC  32 c22
M  ZZC  33 c23
M  ZZC  34 o5
M  ZZC  35 c24
M  ZZC  36 c25
M  ZZC  37 c26
M  ZZC  38 h11
M  ZZC  39 h31
M  ZZC  40 h51
M  ZZC  41 h52
M  ZZC  42 h53
M  ZZC  43 h61
M  ZZC  44 h62
M  ZZC  45 h63
M  ZZC  46 h71
M  ZZC  47 h72
M  ZZC  48 h73
M  ZZC  49 h91
M  ZZC  50 h01
M  ZZC  51 h111
M  ZZC  52 h112
M  ZZC  53 h41
M  ZZC  54 h141
M  ZZC  55 h181
M  ZZC  56 h182
M  ZZC  57 h183
M  ZZC  58 h191
M  ZZC  59 h201
M  ZZC  60 h211
M  ZZC  61 h221
M  ZZC  62 h222
M  ZZC  63 h231
M  ZZC  64 h02
M  ZZC  65 h241
M  ZZC  66 h242
M  ZZC  67 h251
M  ZZC  68 h252
M  ZZC  69 h261
M  ZZC  70 h262
M  ZZM   1 11
M  ZZI   1 90
M  ZZM   2 22
M  ZZI   2 109
M  ZZM   3 3
M  ZZI   3 121
M  ZZM   4 7
M  ZZI   4 81
M  ZZM   5 10
M  ZZI   5 211
M  ZZM   6 1
M  ZZI   6 113
M  ZZM   7 1
M  ZZI   7 110
M  ZZM   8 1
M  ZZI   8 111
M  ZZM   9 1
M  ZZI   9 111
M  ZZM  10 1
M  ZZI  10 111
M  ZZM  11 3
M  ZZI  11 121
M  ZZM  12 7
M  ZZI  12 81
M  ZZM  13 10
M  ZZI  13 192
M  ZZM  14 1
M  ZZI  14 113
M  ZZM  15 3
M  ZZI  15 121
M  ZZM  16 7
M  ZZI  16 81
M  ZZM  17 10
M  ZZI  17 211
M  ZZM  18 1
M  ZZI  18 112
M  ZZM  19 37
M  ZZI  19 124
M  ZZM  20 37
M  ZZI  20 124
M  ZZM  21 6
M  ZZI  21 62
M  ZZM  22 37
M  ZZI  22 125
M  ZZM  23 37
M  ZZI  23 124
M  ZZM  24 63
M  ZZI  24 104
M  ZZM  25 64
M  ZZI  25 105
M  ZZM  26 1
M  ZZI  26 111
M  ZZM  27 66
M  ZZI  27 222
M  ZZM  28 63
M  ZZI  28 104
M  ZZM  29 44
M  ZZI  29 248
M  ZZM  30 37
M  ZZI  30 125
M  ZZM  31 37
M  ZZI  31 125
M  ZZM  32 1
M  ZZI  32 112
M  ZZM  33 1
M  ZZI  33 113
M  ZZM  34 6
M  ZZI  34 60
M  ZZM  35 1
M  ZZI  35 112
M  ZZM  36 22
M  ZZI  36 109
M  ZZM  37 22
M  ZZI  37 109
M  ZZM  38 28
M  ZZI  38 11
M  ZZM  39 5
M  ZZI  39 1
M  ZZM  40 5
M  ZZI  40 1
M  ZZM  41 5
M  ZZI  41 1
M  ZZM  42 5
M  ZZI  42 1
M  ZZM  43 5
M  ZZI  43 1
M  ZZM  44 5
M  ZZI  44 1
M  ZZM  45 5
M  ZZI  45 1
M  ZZM  46 5
M  ZZI  46 1
M  ZZM  47 5
M  ZZI  47 1
M  ZZM  48 5
M  ZZI  48 1
M  ZZM  49 5
M  ZZI  49 1
M  ZZM  50 28
M  ZZI  50 11
M  ZZM  51 5
M  ZZI  51 1
M  ZZM  52 5
M  ZZI  52 1
M  ZZM  53 29
M  ZZI  53 27
M  ZZM  54 5
M  ZZI  54 1
M  ZZM  55 5
M  ZZI  55 1
M  ZZM  56 5
M  ZZI  56 1
M  ZZM  57 5
M  ZZI  57 1
M  ZZM  58 5
M  ZZI  58 1
M  ZZM  59 5
M  ZZI  59 1
M  ZZM  60 5
M  ZZI  60 1
M  ZZM  61 5
M  ZZI  61 1
M  ZZM  62 5
M  ZZI  62 1
M  ZZM  63 5
M  ZZI  63 1
M  ZZM  64 21
M  ZZI  64 20
M  ZZM  65 5
M  ZZI  65 1
M  ZZM  66 5
M  ZZI  66 1
M  ZZM  67 5
M  ZZI  67 1
M  ZZM  68 5
M  ZZI  68 1
M  ZZM  69 5
M  ZZI  69 1
M  ZZM  70 5
M  ZZI  70 1
M  END
> <IX>
1

> <NAME>
VHL_5EU1_27.pdb

> <Score>
-19.310301

> <Natom>
70

> <Nflex>
9

> <Hbond>
-7.484636

> <Hphob>
-6.501311

> <VwInt>
-29.350936

> <Dsolv>
19.085505

> <SolEl>
12.07847

> <Eintl>
9.411209

> <RecConf>
ND

> <projPath>
VHL_maps/

> <NAME_>
VHL_5EU1_27.pdb

$$$$
