VHL_1ERR_3.pdb
  MOLSOFT 04032206363D

 68 70  0  0  1  0  0  0  0  0999 V2000
   15.8069   -6.2226   -5.4578 O   0  0  0  0  0  0  0  0  0  0  0  0
   16.8904   -5.8981   -5.0036 C   0  0  0  0  0  0  0  0  0  0  0  0
   17.1464   -4.7237   -4.3234 N   0  0  0  0  0  0  0  0  0  0  0  0
   16.1647   -3.6533   -4.0815 C   0  0  1  0  0  0  0  0  0  0  0  0
   15.8552   -3.4843   -2.5646 C   0  0  0  0  0  0  0  0  0  0  0  0
   15.3589   -4.8307   -2.0230 C   0  0  0  0  0  0  0  0  0  0  0  0
   14.7405   -2.4646   -2.3044 C   0  0  0  0  0  0  0  0  0  0  0  0
   17.0854   -3.0369   -1.7623 C   0  0  0  0  0  0  0  0  0  0  0  0
   16.7590   -2.4249   -4.7985 C   0  0  0  0  0  0  0  0  0  0  0  0
   17.9665   -2.2185   -4.7864 O   0  0  0  0  0  0  0  0  0  0  0  0
   15.8945   -1.5740   -5.4918 N   0  0  0  0  0  0  0  0  0  0  0  0
   16.4239   -0.6132   -6.4470 C   0  0  2  0  0  0  0  0  0  0  0  0
   16.9193    0.6662   -5.7693 C   0  0  0  0  0  0  0  0  0  0  0  0
   16.5291    1.0251   -4.6665 O   0  0  0  0  0  0  0  0  0  0  0  0
   17.8159    1.3813   -6.5471 N   0  0  0  0  0  0  0  0  0  0  0  0
   18.4242    2.6310   -6.1098 C   0  0  1  0  0  0  0  0  0  0  0  0
   19.8025    2.7957   -6.7555 C   0  0  0  0  0  0  0  0  0  0  0  0
   17.4975    3.8131   -6.3492 C   0  0  0  0  0  0  0  0  0  0  0  0
   17.5425    4.5919   -7.5061 C   0  0  0  0  0  0  0  0  0  0  0  0
   16.6641    5.6447   -7.6977 C   0  0  0  0  0  0  0  0  0  0  0  0
   15.7091    5.9596   -6.7395 C   0  0  0  0  0  0  0  0  0  0  0  0
   14.7774    7.0546   -6.9600 C   0  0  0  0  0  0  0  0  0  0  0  0
   13.8287    7.2321   -7.9556 C   0  0  0  0  0  0  0  0  0  0  0  0
   13.5060    6.2814   -9.0410 C   0  0  0  0  0  0  0  0  0  0  0  0
   13.1345    8.4232   -7.8970 N   0  0  0  0  0  0  0  0  0  0  0  0
   13.5477    9.1218   -6.8635 C   0  0  0  0  0  0  0  0  0  0  0  0
   14.7617    8.4080   -5.9002 S   0  0  0  0  0  0  0  0  0  0  0  0
   15.6579    5.1951   -5.5818 C   0  0  0  0  0  0  0  0  0  0  0  0
   16.5386    4.1447   -5.3931 C   0  0  0  0  0  0  0  0  0  0  0  0
   15.2643   -0.3540   -7.3958 C   0  0  0  0  0  0  0  0  0  0  0  0
   14.0331   -0.5078   -6.5189 C   0  0  1  0  0  0  0  0  0  0  0  0
   12.9320   -0.9928   -7.2851 O   0  0  0  0  0  0  0  0  0  0  0  0
   14.4442   -1.5237   -5.4624 C   0  0  0  0  0  0  0  0  0  0  0  0
   18.0880   -6.7985   -5.1267 C   0  0  0  0  0  0  0  0  0  0  0  0
   18.1061   -4.5406   -4.0535 H   0  0  0  0  0  0  0  0  0  0  0  0
   15.2424   -3.9440   -4.5820 H   0  0  0  0  0  0  0  0  0  0  0  0
   14.4804   -5.1862   -2.5710 H   0  0  0  0  0  0  0  0  0  0  0  0
   15.0754   -4.7506   -0.9712 H   0  0  0  0  0  0  0  0  0  0  0  0
   16.1227   -5.6069   -2.1002 H   0  0  0  0  0  0  0  0  0  0  0  0
   13.8316   -2.7163   -2.8597 H   0  0  0  0  0  0  0  0  0  0  0  0
   15.0508   -1.4508   -2.5713 H   0  0  0  0  0  0  0  0  0  0  0  0
   14.4662   -2.4345   -1.2447 H   0  0  0  0  0  0  0  0  0  0  0  0
   17.4390   -2.0496   -2.0754 H   0  0  0  0  0  0  0  0  0  0  0  0
   17.9151   -3.7319   -1.8748 H   0  0  0  0  0  0  0  0  0  0  0  0
   16.8633   -2.9761   -0.6919 H   0  0  0  0  0  0  0  0  0  0  0  0
   17.2662   -1.0594   -6.9805 H   0  0  0  0  0  0  0  0  0  0  0  0
   18.1111    0.9882   -7.4357 H   0  0  0  0  0  0  0  0  0  0  0  0
   18.5906    2.5483   -5.0294 H   0  0  0  0  0  0  0  0  0  0  0  0
   20.2877    3.7125   -6.4147 H   0  0  0  0  0  0  0  0  0  0  0  0
   19.7303    2.8394   -7.8467 H   0  0  0  0  0  0  0  0  0  0  0  0
   20.4848    1.9829   -6.4950 H   0  0  0  0  0  0  0  0  0  0  0  0
   18.2721    4.3938   -8.2827 H   0  0  0  0  0  0  0  0  0  0  0  0
   16.7363    6.2302   -8.6105 H   0  0  0  0  0  0  0  0  0  0  0  0
   14.2903    6.2846   -9.8016 H   0  0  0  0  0  0  0  0  0  0  0  0
   12.5645    6.5481   -9.5229 H   0  0  0  0  0  0  0  0  0  0  0  0
   13.4012    5.2625   -8.6562 H   0  0  0  0  0  0  0  0  0  0  0  0
   13.1488   10.0964   -6.6249 H   0  0  0  0  0  0  0  0  0  0  0  0
   14.9170    5.4041   -4.8154 H   0  0  0  0  0  0  0  0  0  0  0  0
   16.4642    3.5710   -4.4741 H   0  0  0  0  0  0  0  0  0  0  0  0
   15.3021    0.6280   -7.8791 H   0  0  0  0  0  0  0  0  0  0  0  0
   15.2516   -1.1039   -8.1954 H   0  0  0  0  0  0  0  0  0  0  0  0
   13.7619    0.4532   -6.0658 H   0  0  0  0  0  0  0  0  0  0  0  0
   12.1109   -0.7233   -6.8366 H   0  0  0  0  0  0  0  0  0  0  0  0
   14.0183   -2.5150   -5.6163 H   0  0  0  0  0  0  0  0  0  0  0  0
   14.1163   -1.1705   -4.4854 H   0  0  0  0  0  0  0  0  0  0  0  0
   17.9863   -7.4181   -6.0226 H   0  0  0  0  0  0  0  0  0  0  0  0
   18.1376   -7.4446   -4.2470 H   0  0  0  0  0  0  0  0  0  0  0  0
   19.0115   -6.2176   -5.2112 H   0  0  0  0  0  0  0  0  0  0  0  0
  1  2  2  0  0  0  0
  2  3  1  0  0  0  0
  2 34  1  0  0  0  0
  4  3  1  0  0  0  0
  3 35  1  0  0  0  0
  4  5  1  0  0  0  0
  4 36  1  0  0  0  0
  4  9  1  0  0  0  0
  5  6  1  0  0  0  0
  5  7  1  0  0  0  0
  5  8  1  0  0  0  0
  6 37  1  0  0  0  0
  6 38  1  0  0  0  0
  6 39  1  0  0  0  0
  7 40  1  0  0  0  0
  7 41  1  0  0  0  0
  7 42  1  0  0  0  0
  8 43  1  0  0  0  0
  8 44  1  0  0  0  0
  8 45  1  0  0  0  0
  9 10  2  0  0  0  0
  9 11  1  0  0  0  0
 11 33  1  0  0  0  0
 12 11  1  0  0  0  0
 12 30  1  0  0  0  0
 12 46  1  0  0  0  0
 12 13  1  0  0  0  0
 13 14  2  0  0  0  0
 13 15  1  0  0  0  0
 15 47  1  0  0  0  0
 16 15  1  0  0  0  0
 16 48  1  0  0  0  0
 16 17  1  0  0  0  0
 16 18  1  0  0  0  0
 17 49  1  0  0  0  0
 17 50  1  0  0  0  0
 17 51  1  0  0  0  0
 18 19  1  0  0  0  0
 18 29  2  0  0  0  0
 19 52  1  0  0  0  0
 19 20  2  0  0  0  0
 20 53  1  0  0  0  0
 20 21  1  0  0  0  0
 21 28  2  0  0  0  0
 21 22  1  0  0  0  0
 22 23  2  0  0  0  0
 22 27  1  0  0  0  0
 23 24  1  0  0  0  0
 23 25  1  0  0  0  0
 24 54  1  0  0  0  0
 24 55  1  0  0  0  0
 24 56  1  0  0  0  0
 25 26  2  0  0  0  0
 26 57  1  0  0  0  0
 26 27  1  0  0  0  0
 28 58  1  0  0  0  0
 28 29  1  0  0  0  0
 29 59  1  0  0  0  0
 31 30  1  0  0  0  0
 30 60  1  0  0  0  0
 30 61  1  0  0  0  0
 31 33  1  0  0  0  0
 31 62  1  0  0  0  0
 31 32  1  0  0  0  0
 32 63  1  0  0  0  0
 33 64  1  0  0  0  0
 33 65  1  0  0  0  0
 34 66  1  0  0  0  0
 34 67  1  0  0  0  0
 34 68  1  0  0  0  0
M  ZZC   1 o1
M  ZZC   2 c1
M  ZZC   3 n1
M  ZZC   4 c2
M  ZZC   5 c3
M  ZZC   6 c4
M  ZZC   7 c5
M  ZZC   8 c6
M  ZZC   9 c7
M  ZZC  10 o2
M  ZZC  11 n2
M  ZZC  12 c8
M  ZZC  13 c9
M  ZZC  14 o3
M  ZZC  15 n3
M  ZZC  16 c10
M  ZZC  17 c11
M  ZZC  18 c12
M  ZZC  19 c13
M  ZZC  20 c14
M  ZZC  21 c15
M  ZZC  22 c16
M  ZZC  23 c17
M  ZZC  24 c18
M  ZZC  25 n4
M  ZZC  26 c19
M  ZZC  27 s1
M  ZZC  28 c20
M  ZZC  29 c21
M  ZZC  30 c22
M  ZZC  31 c23
M  ZZC  32 o4
M  ZZC  33 c24
M  ZZC  34 c25
M  ZZC  35 h11
M  ZZC  36 h21
M  ZZC  37 h41
M  ZZC  38 h42
M  ZZC  39 h43
M  ZZC  40 h51
M  ZZC  41 h52
M  ZZC  42 h53
M  ZZC  43 h61
M  ZZC  44 h62
M  ZZC  45 h63
M  ZZC  46 h81
M  ZZC  47 h31
M  ZZC  48 h101
M  ZZC  49 h111
M  ZZC  50 h112
M  ZZC  51 h113
M  ZZC  52 h131
M  ZZC  53 h141
M  ZZC  54 h181
M  ZZC  55 h182
M  ZZC  56 h183
M  ZZC  57 h191
M  ZZC  58 h201
M  ZZC  59 h211
M  ZZC  60 h221
M  ZZC  61 h222
M  ZZC  62 h231
M  ZZC  63 h01
M  ZZC  64 h241
M  ZZC  65 h242
M  ZZC  66 h251
M  ZZC  67 h252
M  ZZC  68 h253
M  ZZM   1 7
M  ZZI   1 81
M  ZZM   2 3
M  ZZI   2 121
M  ZZM   3 10
M  ZZI   3 211
M  ZZM   4 1
M  ZZI   4 113
M  ZZM   5 1
M  ZZI   5 110
M  ZZM   6 1
M  ZZI   6 111
M  ZZM   7 1
M  ZZI   7 111
M  ZZM   8 1
M  ZZI   8 111
M  ZZM   9 3
M  ZZI   9 121
M  ZZM  10 7
M  ZZI  10 81
M  ZZM  11 10
M  ZZI  11 192
M  ZZM  12 1
M  ZZI  12 113
M  ZZM  13 3
M  ZZI  13 121
M  ZZM  14 7
M  ZZI  14 81
M  ZZM  15 10
M  ZZI  15 211
M  ZZM  16 1
M  ZZI  16 113
M  ZZM  17 1
M  ZZI  17 111
M  ZZM  18 37
M  ZZI  18 124
M  ZZM  19 37
M  ZZI  19 125
M  ZZM  20 37
M  ZZI  20 125
M  ZZM  21 37
M  ZZI  21 124
M  ZZM  22 63
M  ZZI  22 104
M  ZZM  23 64
M  ZZI  23 105
M  ZZM  24 1
M  ZZI  24 111
M  ZZM  25 66
M  ZZI  25 222
M  ZZM  26 63
M  ZZI  26 104
M  ZZM  27 44
M  ZZI  27 248
M  ZZM  28 37
M  ZZI  28 125
M  ZZM  29 37
M  ZZI  29 125
M  ZZM  30 1
M  ZZI  30 112
M  ZZM  31 1
M  ZZI  31 113
M  ZZM  32 6
M  ZZI  32 60
M  ZZM  33 1
M  ZZI  33 112
M  ZZM  34 1
M  ZZI  34 111
M  ZZM  35 28
M  ZZI  35 11
M  ZZM  36 5
M  ZZI  36 1
M  ZZM  37 5
M  ZZI  37 1
M  ZZM  38 5
M  ZZI  38 1
M  ZZM  39 5
M  ZZI  39 1
M  ZZM  40 5
M  ZZI  40 1
M  ZZM  41 5
M  ZZI  41 1
M  ZZM  42 5
M  ZZI  42 1
M  ZZM  43 5
M  ZZI  43 1
M  ZZM  44 5
M  ZZI  44 1
M  ZZM  45 5
M  ZZI  45 1
M  ZZM  46 5
M  ZZI  46 1
M  ZZM  47 28
M  ZZI  47 11
M  ZZM  48 5
M  ZZI  48 1
M  ZZM  49 5
M  ZZI  49 1
M  ZZM  50 5
M  ZZI  50 1
M  ZZM  51 5
M  ZZI  51 1
M  ZZM  52 5
M  ZZI  52 1
M  ZZM  53 5
M  ZZI  53 1
M  ZZM  54 5
M  ZZI  54 1
M  ZZM  55 5
M  ZZI  55 1
M  ZZM  56 5
M  ZZI  56 1
M  ZZM  57 5
M  ZZI  57 1
M  ZZM  58 5
M  ZZI  58 1
M  ZZM  59 5
M  ZZI  59 1
M  ZZM  60 5
M  ZZI  60 1
M  ZZM  61 5
M  ZZI  61 1
M  ZZM  62 5
M  ZZI  62 1
M  ZZM  63 21
M  ZZI  63 20
M  ZZM  64 5
M  ZZI  64 1
M  ZZM  65 5
M  ZZI  65 1
M  ZZM  66 5
M  ZZI  66 1
M  ZZM  67 5
M  ZZI  67 1
M  ZZM  68 5
M  ZZI  68 1
M  END
> <IX>
1

> <NAME>
VHL_1ERR_3.pdb

> <Score>
-3.138129

> <Natom>
68

> <Nflex>
8

> <Hbond>
-5.02388

> <Hphob>
-6.800542

> <VwInt>
-28.293439

> <Dsolv>
22.908188

> <SolEl>
23.081011

> <Eintl>
8.679135

> <RecConf>
ND

> <projPath>
VHL_maps/

> <NAME_>
VHL_1ERR_3.pdb

$$$$
