VHL_2JF9_2.pdb
  MOLSOFT 04032206373D

 62 64  0  0  1  0  0  0  0  0999 V2000
   12.9506   -1.8587   -6.8512 O   0  0  0  0  0  0  0  0  0  0  0  0
   13.0873   -0.7033   -6.4869 C   0  0  0  0  0  0  0  0  0  0  0  0
   14.2568   -0.2007   -5.9624 N   0  0  0  0  0  0  0  0  0  0  0  0
   15.4309   -1.0541   -5.7670 C   0  0  2  0  0  0  0  0  0  0  0  0
   15.2714   -1.7180   -4.3896 C   0  0  0  0  0  0  0  0  0  0  0  0
   14.6402   -1.1708   -3.4932 O   0  0  0  0  0  0  0  0  0  0  0  0
   15.8785   -2.9572   -4.1889 N   0  0  0  0  0  0  0  0  0  0  0  0
   15.6572   -3.6846   -2.9529 C   0  0  2  0  0  0  0  0  0  0  0  0
   16.6031   -3.2206   -1.8463 C   0  0  0  0  0  0  0  0  0  0  0  0
   17.7247   -2.7803   -2.0580 O   0  0  0  0  0  0  0  0  0  0  0  0
   16.0751   -3.3920   -0.5830 N   0  0  0  0  0  0  0  0  0  0  0  0
   16.7995   -2.9880    0.6028 C   0  0  0  0  0  0  0  0  0  0  0  0
   15.9266   -3.0528    1.8277 C   0  0  0  0  0  0  0  0  0  0  0  0
   14.8416   -2.1928    1.9700 C   0  0  0  0  0  0  0  0  0  0  0  0
   14.0180   -2.2660    3.0800 C   0  0  0  0  0  0  0  0  0  0  0  0
   14.2590   -3.2036    4.0796 C   0  0  0  0  0  0  0  0  0  0  0  0
   13.3970   -3.2956    5.2494 C   0  0  0  0  0  0  0  0  0  0  0  0
   12.6736   -4.3665    5.7589 C   0  0  0  0  0  0  0  0  0  0  0  0
   12.5625   -5.7261    5.1819 C   0  0  0  0  0  0  0  0  0  0  0  0
   11.9825   -4.1022    6.9245 N   0  0  0  0  0  0  0  0  0  0  0  0
   12.1739   -2.8520    7.2797 C   0  0  0  0  0  0  0  0  0  0  0  0
   13.1811   -1.9222    6.2629 S   0  0  0  0  0  0  0  0  0  0  0  0
   15.3485   -4.0572    3.9411 C   0  0  0  0  0  0  0  0  0  0  0  0
   16.1727   -3.9823    2.8318 C   0  0  0  0  0  0  0  0  0  0  0  0
   15.8958   -5.1346   -3.3176 C   0  0  0  0  0  0  0  0  0  0  0  0
   16.8916   -5.0940   -4.4684 C   0  0  1  0  0  0  0  0  0  0  0  0
   16.6149   -6.1522   -5.3899 O   0  0  0  0  0  0  0  0  0  0  0  0
   16.7091   -3.7174   -5.1077 C   0  0  0  0  0  0  0  0  0  0  0  0
   16.7546   -0.2763   -5.9249 C   0  0  0  0  0  0  0  0  0  0  0  0
   16.9932    0.7644   -4.8289 C   0  0  0  0  0  0  0  0  0  0  0  0
   16.8254    0.3937   -7.2987 C   0  0  0  0  0  0  0  0  0  0  0  0
   11.9700    0.2942   -6.5398 C   0  0  0  0  0  0  0  0  0  0  0  0
   14.2554    0.7325   -5.5654 H   0  0  0  0  0  0  0  0  0  0  0  0
   15.3856   -1.8332   -6.5344 H   0  0  0  0  0  0  0  0  0  0  0  0
   14.6238   -3.5330   -2.6189 H   0  0  0  0  0  0  0  0  0  0  0  0
   15.1537   -3.8007   -0.4692 H   0  0  0  0  0  0  0  0  0  0  0  0
   17.6719   -3.6441    0.6990 H   0  0  0  0  0  0  0  0  0  0  0  0
   17.1804   -1.9706    0.4604 H   0  0  0  0  0  0  0  0  0  0  0  0
   14.6246   -1.4551    1.2022 H   0  0  0  0  0  0  0  0  0  0  0  0
   13.1743   -1.5848    3.1505 H   0  0  0  0  0  0  0  0  0  0  0  0
   11.7805   -6.3034    5.6835 H   0  0  0  0  0  0  0  0  0  0  0  0
   13.5033   -6.2738    5.2879 H   0  0  0  0  0  0  0  0  0  0  0  0
   12.3025   -5.6771    4.1214 H   0  0  0  0  0  0  0  0  0  0  0  0
   11.7215   -2.4275    8.1645 H   0  0  0  0  0  0  0  0  0  0  0  0
   15.5722   -4.7933    4.7080 H   0  0  0  0  0  0  0  0  0  0  0  0
   17.0129   -4.6670    2.7557 H   0  0  0  0  0  0  0  0  0  0  0  0
   16.2631   -5.7395   -2.4845 H   0  0  0  0  0  0  0  0  0  0  0  0
   14.9573   -5.5881   -3.6436 H   0  0  0  0  0  0  0  0  0  0  0  0
   17.9160   -5.2152   -4.1078 H   0  0  0  0  0  0  0  0  0  0  0  0
   16.5468   -6.9788   -4.8766 H   0  0  0  0  0  0  0  0  0  0  0  0
   16.2557   -3.7481   -6.0991 H   0  0  0  0  0  0  0  0  0  0  0  0
   17.6713   -3.2048   -5.2001 H   0  0  0  0  0  0  0  0  0  0  0  0
   17.5815   -0.9899   -5.8635 H   0  0  0  0  0  0  0  0  0  0  0  0
   16.1996    1.5182   -4.8350 H   0  0  0  0  0  0  0  0  0  0  0  0
   17.9376    1.2948   -4.9801 H   0  0  0  0  0  0  0  0  0  0  0  0
   17.0109    0.3145   -3.8320 H   0  0  0  0  0  0  0  0  0  0  0  0
   17.7918    0.8855   -7.4397 H   0  0  0  0  0  0  0  0  0  0  0  0
   16.0523    1.1580   -7.4246 H   0  0  0  0  0  0  0  0  0  0  0  0
   16.7040   -0.3403   -8.1018 H   0  0  0  0  0  0  0  0  0  0  0  0
   11.4562    0.3040   -5.5754 H   0  0  0  0  0  0  0  0  0  0  0  0
   11.2649    0.0105   -7.3256 H   0  0  0  0  0  0  0  0  0  0  0  0
   12.3624    1.2910   -6.7589 H   0  0  0  0  0  0  0  0  0  0  0  0
  1  2  2  0  0  0  0
  2  3  1  0  0  0  0
  2 32  1  0  0  0  0
  4  3  1  0  0  0  0
  3 33  1  0  0  0  0
  4  5  1  0  0  0  0
  4 34  1  0  0  0  0
  4 29  1  0  0  0  0
  5  7  1  0  0  0  0
  5  6  2  0  0  0  0
  7 28  1  0  0  0  0
  8  7  1  0  0  0  0
  8  9  1  0  0  0  0
  8 35  1  0  0  0  0
  8 25  1  0  0  0  0
  9 11  1  0  0  0  0
  9 10  2  0  0  0  0
 11 12  1  0  0  0  0
 11 36  1  0  0  0  0
 12 37  1  0  0  0  0
 12 38  1  0  0  0  0
 12 13  1  0  0  0  0
 13 24  2  0  0  0  0
 13 14  1  0  0  0  0
 14 15  2  0  0  0  0
 14 39  1  0  0  0  0
 15 16  1  0  0  0  0
 15 40  1  0  0  0  0
 16 23  2  0  0  0  0
 16 17  1  0  0  0  0
 17 18  2  0  0  0  0
 17 22  1  0  0  0  0
 18 19  1  0  0  0  0
 18 20  1  0  0  0  0
 19 41  1  0  0  0  0
 19 42  1  0  0  0  0
 19 43  1  0  0  0  0
 20 21  2  0  0  0  0
 21 44  1  0  0  0  0
 21 22  1  0  0  0  0
 23 24  1  0  0  0  0
 23 45  1  0  0  0  0
 24 46  1  0  0  0  0
 25 47  1  0  0  0  0
 25 48  1  0  0  0  0
 26 25  1  0  0  0  0
 26 49  1  0  0  0  0
 26 27  1  0  0  0  0
 26 28  1  0  0  0  0
 27 50  1  0  0  0  0
 28 51  1  0  0  0  0
 28 52  1  0  0  0  0
 29 53  1  0  0  0  0
 29 31  1  0  0  0  0
 29 30  1  0  0  0  0
 30 54  1  0  0  0  0
 30 55  1  0  0  0  0
 30 56  1  0  0  0  0
 31 57  1  0  0  0  0
 31 58  1  0  0  0  0
 31 59  1  0  0  0  0
 32 60  1  0  0  0  0
 32 61  1  0  0  0  0
 32 62  1  0  0  0  0
M  ZZC   1 o1
M  ZZC   2 c1
M  ZZC   3 n1
M  ZZC   4 c2
M  ZZC   5 c3
M  ZZC   6 o2
M  ZZC   7 n2
M  ZZC   8 c4
M  ZZC   9 c5
M  ZZC  10 o3
M  ZZC  11 n3
M  ZZC  12 c6
M  ZZC  13 c7
M  ZZC  14 c8
M  ZZC  15 c9
M  ZZC  16 c10
M  ZZC  17 c11
M  ZZC  18 c12
M  ZZC  19 c13
M  ZZC  20 n4
M  ZZC  21 c14
M  ZZC  22 s1
M  ZZC  23 c15
M  ZZC  24 c16
M  ZZC  25 c17
M  ZZC  26 c18
M  ZZC  27 o4
M  ZZC  28 c19
M  ZZC  29 c20
M  ZZC  30 c21
M  ZZC  31 c22
M  ZZC  32 c23
M  ZZC  33 h11
M  ZZC  34 h21
M  ZZC  35 h41
M  ZZC  36 h31
M  ZZC  37 h61
M  ZZC  38 h62
M  ZZC  39 h81
M  ZZC  40 h91
M  ZZC  41 h131
M  ZZC  42 h132
M  ZZC  43 h133
M  ZZC  44 h141
M  ZZC  45 h151
M  ZZC  46 h161
M  ZZC  47 h171
M  ZZC  48 h172
M  ZZC  49 h181
M  ZZC  50 h01
M  ZZC  51 h191
M  ZZC  52 h192
M  ZZC  53 h201
M  ZZC  54 h211
M  ZZC  55 h212
M  ZZC  56 h213
M  ZZC  57 h221
M  ZZC  58 h222
M  ZZC  59 h223
M  ZZC  60 h231
M  ZZC  61 h232
M  ZZC  62 h233
M  ZZM   1 7
M  ZZI   1 81
M  ZZM   2 3
M  ZZI   2 121
M  ZZM   3 10
M  ZZI   3 211
M  ZZM   4 1
M  ZZI   4 113
M  ZZM   5 3
M  ZZI   5 121
M  ZZM   6 7
M  ZZI   6 81
M  ZZM   7 10
M  ZZI   7 192
M  ZZM   8 1
M  ZZI   8 113
M  ZZM   9 3
M  ZZI   9 121
M  ZZM  10 7
M  ZZI  10 81
M  ZZM  11 10
M  ZZI  11 211
M  ZZM  12 1
M  ZZI  12 112
M  ZZM  13 37
M  ZZI  13 124
M  ZZM  14 37
M  ZZI  14 125
M  ZZM  15 37
M  ZZI  15 125
M  ZZM  16 37
M  ZZI  16 124
M  ZZM  17 63
M  ZZI  17 104
M  ZZM  18 64
M  ZZI  18 105
M  ZZM  19 1
M  ZZI  19 111
M  ZZM  20 66
M  ZZI  20 222
M  ZZM  21 63
M  ZZI  21 104
M  ZZM  22 44
M  ZZI  22 248
M  ZZM  23 37
M  ZZI  23 125
M  ZZM  24 37
M  ZZI  24 125
M  ZZM  25 1
M  ZZI  25 112
M  ZZM  26 1
M  ZZI  26 113
M  ZZM  27 6
M  ZZI  27 60
M  ZZM  28 1
M  ZZI  28 112
M  ZZM  29 1
M  ZZI  29 113
M  ZZM  30 1
M  ZZI  30 111
M  ZZM  31 1
M  ZZI  31 111
M  ZZM  32 1
M  ZZI  32 111
M  ZZM  33 28
M  ZZI  33 11
M  ZZM  34 5
M  ZZI  34 1
M  ZZM  35 5
M  ZZI  35 1
M  ZZM  36 28
M  ZZI  36 11
M  ZZM  37 5
M  ZZI  37 1
M  ZZM  38 5
M  ZZI  38 1
M  ZZM  39 5
M  ZZI  39 1
M  ZZM  40 5
M  ZZI  40 1
M  ZZM  41 5
M  ZZI  41 1
M  ZZM  42 5
M  ZZI  42 1
M  ZZM  43 5
M  ZZI  43 1
M  ZZM  44 5
M  ZZI  44 1
M  ZZM  45 5
M  ZZI  45 1
M  ZZM  46 5
M  ZZI  46 1
M  ZZM  47 5
M  ZZI  47 1
M  ZZM  48 5
M  ZZI  48 1
M  ZZM  49 5
M  ZZI  49 1
M  ZZM  50 21
M  ZZI  50 20
M  ZZM  51 5
M  ZZI  51 1
M  ZZM  52 5
M  ZZI  52 1
M  ZZM  53 5
M  ZZI  53 1
M  ZZM  54 5
M  ZZI  54 1
M  ZZM  55 5
M  ZZI  55 1
M  ZZM  56 5
M  ZZI  56 1
M  ZZM  57 5
M  ZZI  57 1
M  ZZM  58 5
M  ZZI  58 1
M  ZZM  59 5
M  ZZI  59 1
M  ZZM  60 5
M  ZZI  60 1
M  ZZM  61 5
M  ZZI  61 1
M  ZZM  62 5
M  ZZI  62 1
M  END
> <IX>
1

> <NAME>
VHL_2JF9_2.pdb

> <Score>
-18.216223

> <Natom>
62

> <Nflex>
8

> <Hbond>
-3.817599

> <Hphob>
-5.649256

> <VwInt>
-29.405869

> <Dsolv>
17.442636

> <SolEl>
8.521586

> <Eintl>
1.87825

> <RecConf>
ND

> <projPath>
VHL_maps/

> <NAME_>
VHL_2JF9_2.pdb

$$$$
