VHL_3K5V_2.pdb
  MOLSOFT 04032206373D

 65 67  0  0  1  0  0  0  0  0999 V2000
   18.0919   -6.8146   -5.1099 C   0  0  0  0  0  0  0  0  0  0  0  0
   16.8944   -5.9127   -4.9911 C   0  0  0  0  0  0  0  0  0  0  0  0
   15.8223   -6.2315   -5.4750 O   0  0  0  0  0  0  0  0  0  0  0  0
   17.1374   -4.7608   -4.2701 N   0  0  0  0  0  0  0  0  0  0  0  0
   16.1471   -3.6998   -4.0234 C   0  0  1  0  0  0  0  0  0  0  0  0
   15.8702   -3.5032   -2.5042 C   0  0  0  0  0  0  0  0  0  0  0  0
   14.7760   -2.4679   -2.2217 C   0  0  0  0  0  0  0  0  0  0  0  0
   17.1213   -3.0641   -1.7304 C   0  0  0  0  0  0  0  0  0  0  0  0
   15.3641   -4.8365   -1.9478 C   0  0  0  0  0  0  0  0  0  0  0  0
   16.7043   -2.4784   -4.7755 C   0  0  0  0  0  0  0  0  0  0  0  0
   17.9089   -2.2537   -4.8001 O   0  0  0  0  0  0  0  0  0  0  0  0
   15.8013   -1.6571   -5.4539 N   0  0  0  0  0  0  0  0  0  0  0  0
   16.2782   -0.7073   -6.4427 C   0  0  2  0  0  0  0  0  0  0  0  0
   16.7859    0.5692   -5.7721 C   0  0  0  0  0  0  0  0  0  0  0  0
   16.2936    1.0211   -4.7468 O   0  0  0  0  0  0  0  0  0  0  0  0
   17.8216    1.1716   -6.4621 N   0  0  0  0  0  0  0  0  0  0  0  0
   18.4670    2.3822   -5.9971 C   0  0  0  0  0  0  0  0  0  0  0  0
   17.8142    3.6228   -6.5491 C   0  0  0  0  0  0  0  0  0  0  0  0
   18.4295    4.3743   -7.5452 C   0  0  0  0  0  0  0  0  0  0  0  0
   17.8233    5.5145   -8.0479 C   0  0  0  0  0  0  0  0  0  0  0  0
   16.5818    5.9304   -7.5727 C   0  0  0  0  0  0  0  0  0  0  0  0
   15.9265    7.1248   -8.0885 C   0  0  0  0  0  0  0  0  0  0  0  0
   14.6345    7.3125   -8.5625 C   0  0  0  0  0  0  0  0  0  0  0  0
   13.5715    6.2918   -8.7006 C   0  0  0  0  0  0  0  0  0  0  0  0
   14.3300    8.6060   -8.9252 N   0  0  0  0  0  0  0  0  0  0  0  0
   15.3848    9.3727   -8.7664 C   0  0  0  0  0  0  0  0  0  0  0  0
   16.7822    8.6168   -8.1500 S   0  0  0  0  0  0  0  0  0  0  0  0
   15.9682    5.1758   -6.5809 C   0  0  0  0  0  0  0  0  0  0  0  0
   16.5772    4.0444   -6.0751 C   0  0  0  0  0  0  0  0  0  0  0  0
   15.0693   -0.4552   -7.3306 C   0  0  0  0  0  0  0  0  0  0  0  0
   13.8807   -0.6141   -6.3939 C   0  0  1  0  0  0  0  0  0  0  0  0
   12.7402   -1.1426   -7.0672 O   0  0  0  0  0  0  0  0  0  0  0  0
   14.3549   -1.6016   -5.3409 C   0  0  0  0  0  0  0  0  0  0  0  0
   18.9948   -6.2013   -5.1585 H   0  0  0  0  0  0  0  0  0  0  0  0
   18.0238   -7.4432   -6.0030 H   0  0  0  0  0  0  0  0  0  0  0  0
   18.1461   -7.4659   -4.2325 H   0  0  0  0  0  0  0  0  0  0  0  0
   18.0950   -4.5797   -3.9890 H   0  0  0  0  0  0  0  0  0  0  0  0
   15.2173   -4.0125   -4.4978 H   0  0  0  0  0  0  0  0  0  0  0  0
   15.0917   -1.4599   -2.5041 H   0  0  0  0  0  0  0  0  0  0  0  0
   14.5331   -2.4256   -1.1548 H   0  0  0  0  0  0  0  0  0  0  0  0
   13.8476   -2.7144   -2.7457 H   0  0  0  0  0  0  0  0  0  0  0  0
   16.9201   -2.9859   -0.6570 H   0  0  0  0  0  0  0  0  0  0  0  0
   17.4833   -2.0866   -2.0640 H   0  0  0  0  0  0  0  0  0  0  0  0
   17.9383   -3.7719   -1.8478 H   0  0  0  0  0  0  0  0  0  0  0  0
   15.0971   -4.7419   -0.8938 H   0  0  0  0  0  0  0  0  0  0  0  0
   16.1168   -5.6217   -2.0367 H   0  0  0  0  0  0  0  0  0  0  0  0
   14.4725   -5.1830   -2.4802 H   0  0  0  0  0  0  0  0  0  0  0  0
   17.0935   -1.1568   -7.0166 H   0  0  0  0  0  0  0  0  0  0  0  0
   18.1918    0.7270   -7.2961 H   0  0  0  0  0  0  0  0  0  0  0  0
   18.4564    2.4075   -4.9018 H   0  0  0  0  0  0  0  0  0  0  0  0
   19.5157    2.3256   -6.3073 H   0  0  0  0  0  0  0  0  0  0  0  0
   19.3998    4.0800   -7.9347 H   0  0  0  0  0  0  0  0  0  0  0  0
   18.3316    6.0766   -8.8266 H   0  0  0  0  0  0  0  0  0  0  0  0
   12.7968    6.6132   -9.4032 H   0  0  0  0  0  0  0  0  0  0  0  0
   13.0856    6.1037   -7.7403 H   0  0  0  0  0  0  0  0  0  0  0  0
   13.9920    5.3472   -9.0539 H   0  0  0  0  0  0  0  0  0  0  0  0
   15.3811   10.4247   -9.0115 H   0  0  0  0  0  0  0  0  0  0  0  0
   15.0052    5.4731   -6.1756 H   0  0  0  0  0  0  0  0  0  0  0  0
   16.0716    3.4901   -5.2904 H   0  0  0  0  0  0  0  0  0  0  0  0
   15.0811    0.5267   -7.8153 H   0  0  0  0  0  0  0  0  0  0  0  0
   15.0255   -1.2077   -8.1257 H   0  0  0  0  0  0  0  0  0  0  0  0
   13.6049    0.3420   -5.9344 H   0  0  0  0  0  0  0  0  0  0  0  0
   12.4806   -0.5169   -7.7667 H   0  0  0  0  0  0  0  0  0  0  0  0
   13.9135   -2.5944   -5.4336 H   0  0  0  0  0  0  0  0  0  0  0  0
   14.0905   -1.2118   -4.3593 H   0  0  0  0  0  0  0  0  0  0  0  0
  1 34  1  0  0  0  0
  1 35  1  0  0  0  0
  1 36  1  0  0  0  0
  1  2  1  0  0  0  0
  2  3  2  0  0  0  0
  2  4  1  0  0  0  0
  4 37  1  0  0  0  0
  5  4  1  0  0  0  0
  5 38  1  0  0  0  0
  5  6  1  0  0  0  0
  5 10  1  0  0  0  0
  6  7  1  0  0  0  0
  6  8  1  0  0  0  0
  6  9  1  0  0  0  0
  7 39  1  0  0  0  0
  7 40  1  0  0  0  0
  7 41  1  0  0  0  0
  8 42  1  0  0  0  0
  8 43  1  0  0  0  0
  8 44  1  0  0  0  0
  9 45  1  0  0  0  0
  9 46  1  0  0  0  0
  9 47  1  0  0  0  0
 10 11  2  0  0  0  0
 10 12  1  0  0  0  0
 12 33  1  0  0  0  0
 13 12  1  0  0  0  0
 13 30  1  0  0  0  0
 13 48  1  0  0  0  0
 13 14  1  0  0  0  0
 14 15  2  0  0  0  0
 14 16  1  0  0  0  0
 16 49  1  0  0  0  0
 16 17  1  0  0  0  0
 17 50  1  0  0  0  0
 17 51  1  0  0  0  0
 17 18  1  0  0  0  0
 18 19  1  0  0  0  0
 18 29  2  0  0  0  0
 19 52  1  0  0  0  0
 19 20  2  0  0  0  0
 20 53  1  0  0  0  0
 20 21  1  0  0  0  0
 21 28  2  0  0  0  0
 21 22  1  0  0  0  0
 22 23  2  0  0  0  0
 22 27  1  0  0  0  0
 23 24  1  0  0  0  0
 23 25  1  0  0  0  0
 24 54  1  0  0  0  0
 24 55  1  0  0  0  0
 24 56  1  0  0  0  0
 25 26  2  0  0  0  0
 26 57  1  0  0  0  0
 26 27  1  0  0  0  0
 28 58  1  0  0  0  0
 28 29  1  0  0  0  0
 29 59  1  0  0  0  0
 31 30  1  0  0  0  0
 30 60  1  0  0  0  0
 30 61  1  0  0  0  0
 31 33  1  0  0  0  0
 31 62  1  0  0  0  0
 31 32  1  0  0  0  0
 32 63  1  0  0  0  0
 33 64  1  0  0  0  0
 33 65  1  0  0  0  0
M  ZZC   1 c1
M  ZZC   2 c2
M  ZZC   3 o1
M  ZZC   4 n1
M  ZZC   5 c3
M  ZZC   6 c4
M  ZZC   7 c5
M  ZZC   8 c6
M  ZZC   9 c7
M  ZZC  10 c8
M  ZZC  11 o2
M  ZZC  12 n2
M  ZZC  13 c9
M  ZZC  14 c10
M  ZZC  15 o3
M  ZZC  16 n3
M  ZZC  17 c11
M  ZZC  18 c12
M  ZZC  19 c13
M  ZZC  20 c14
M  ZZC  21 c15
M  ZZC  22 c16
M  ZZC  23 c17
M  ZZC  24 c18
M  ZZC  25 n4
M  ZZC  26 c19
M  ZZC  27 s1
M  ZZC  28 c20
M  ZZC  29 c21
M  ZZC  30 c22
M  ZZC  31 c23
M  ZZC  32 o4
M  ZZC  33 c24
M  ZZC  34 h11
M  ZZC  35 h12
M  ZZC  36 h13
M  ZZC  37 h01
M  ZZC  38 h31
M  ZZC  39 h51
M  ZZC  40 h52
M  ZZC  41 h53
M  ZZC  42 h61
M  ZZC  43 h62
M  ZZC  44 h63
M  ZZC  45 h71
M  ZZC  46 h72
M  ZZC  47 h73
M  ZZC  48 h91
M  ZZC  49 h02
M  ZZC  50 h111
M  ZZC  51 h112
M  ZZC  52 h131
M  ZZC  53 h141
M  ZZC  54 h181
M  ZZC  55 h182
M  ZZC  56 h183
M  ZZC  57 h191
M  ZZC  58 h201
M  ZZC  59 h211
M  ZZC  60 h221
M  ZZC  61 h222
M  ZZC  62 h231
M  ZZC  63 h41
M  ZZC  64 h241
M  ZZC  65 h242
M  ZZM   1 1
M  ZZI   1 111
M  ZZM   2 3
M  ZZI   2 121
M  ZZM   3 7
M  ZZI   3 81
M  ZZM   4 10
M  ZZI   4 211
M  ZZM   5 1
M  ZZI   5 113
M  ZZM   6 1
M  ZZI   6 110
M  ZZM   7 1
M  ZZI   7 111
M  ZZM   8 1
M  ZZI   8 111
M  ZZM   9 1
M  ZZI   9 111
M  ZZM  10 3
M  ZZI  10 121
M  ZZM  11 7
M  ZZI  11 81
M  ZZM  12 10
M  ZZI  12 192
M  ZZM  13 1
M  ZZI  13 113
M  ZZM  14 3
M  ZZI  14 121
M  ZZM  15 7
M  ZZI  15 81
M  ZZM  16 10
M  ZZI  16 211
M  ZZM  17 1
M  ZZI  17 112
M  ZZM  18 37
M  ZZI  18 124
M  ZZM  19 37
M  ZZI  19 125
M  ZZM  20 37
M  ZZI  20 125
M  ZZM  21 37
M  ZZI  21 124
M  ZZM  22 63
M  ZZI  22 104
M  ZZM  23 64
M  ZZI  23 105
M  ZZM  24 1
M  ZZI  24 111
M  ZZM  25 66
M  ZZI  25 222
M  ZZM  26 63
M  ZZI  26 104
M  ZZM  27 44
M  ZZI  27 248
M  ZZM  28 37
M  ZZI  28 125
M  ZZM  29 37
M  ZZI  29 125
M  ZZM  30 1
M  ZZI  30 112
M  ZZM  31 1
M  ZZI  31 113
M  ZZM  32 6
M  ZZI  32 60
M  ZZM  33 1
M  ZZI  33 112
M  ZZM  34 5
M  ZZI  34 1
M  ZZM  35 5
M  ZZI  35 1
M  ZZM  36 5
M  ZZI  36 1
M  ZZM  37 28
M  ZZI  37 11
M  ZZM  38 5
M  ZZI  38 1
M  ZZM  39 5
M  ZZI  39 1
M  ZZM  40 5
M  ZZI  40 1
M  ZZM  41 5
M  ZZI  41 1
M  ZZM  42 5
M  ZZI  42 1
M  ZZM  43 5
M  ZZI  43 1
M  ZZM  44 5
M  ZZI  44 1
M  ZZM  45 5
M  ZZI  45 1
M  ZZM  46 5
M  ZZI  46 1
M  ZZM  47 5
M  ZZI  47 1
M  ZZM  48 5
M  ZZI  48 1
M  ZZM  49 28
M  ZZI  49 11
M  ZZM  50 5
M  ZZI  50 1
M  ZZM  51 5
M  ZZI  51 1
M  ZZM  52 5
M  ZZI  52 1
M  ZZM  53 5
M  ZZI  53 1
M  ZZM  54 5
M  ZZI  54 1
M  ZZM  55 5
M  ZZI  55 1
M  ZZM  56 5
M  ZZI  56 1
M  ZZM  57 5
M  ZZI  57 1
M  ZZM  58 5
M  ZZI  58 1
M  ZZM  59 5
M  ZZI  59 1
M  ZZM  60 5
M  ZZI  60 1
M  ZZM  61 5
M  ZZI  61 1
M  ZZM  62 5
M  ZZI  62 1
M  ZZM  63 21
M  ZZI  63 20
M  ZZM  64 5
M  ZZI  64 1
M  ZZM  65 5
M  ZZI  65 1
M  END
> <IX>
1

> <NAME>
VHL_3K5V_2.pdb

> <Score>
-5.039742

> <Natom>
65

> <Nflex>
8

> <Hbond>
-5.143226

> <Hphob>
-6.300139

> <VwInt>
-27.848258

> <Dsolv>
22.515762

> <SolEl>
22.09233

> <Eintl>
6.290353

> <RecConf>
ND

> <projPath>
VHL_maps/

> <NAME_>
VHL_3K5V_2.pdb

$$$$
