VHL_5EU1_11.pdb
  MOLSOFT 04032206403D

 65 67  0  0  1  0  0  0  0  0999 V2000
   16.2119   -6.2305   -5.6391 O   0  0  0  0  0  0  0  0  0  0  0  0
   17.3135   -5.7705   -5.3824 C   0  0  0  0  0  0  0  0  0  0  0  0
   17.5525   -4.4757   -4.9545 N   0  0  0  0  0  0  0  0  0  0  0  0
   16.5117   -3.4582   -4.7638 C   0  0  1  0  0  0  0  0  0  0  0  0
   15.9180   -3.4487   -3.3149 C   0  0  0  0  0  0  0  0  0  0  0  0
   15.4925   -4.8546   -2.8604 C   0  0  0  0  0  0  0  0  0  0  0  0
   14.6614   -2.5674   -3.2632 C   0  0  0  0  0  0  0  0  0  0  0  0
   16.9316   -2.9236   -2.2868 C   0  0  0  0  0  0  0  0  0  0  0  0
   17.1369   -2.1037   -5.1670 C   0  0  0  0  0  0  0  0  0  0  0  0
   18.2697   -1.8120   -4.8128 O   0  0  0  0  0  0  0  0  0  0  0  0
   16.3743   -1.1902   -5.9018 N   0  0  0  0  0  0  0  0  0  0  0  0
   16.9049    0.1439   -6.2012 C   0  0  2  0  0  0  0  0  0  0  0  0
   16.8600    1.1122   -5.0166 C   0  0  0  0  0  0  0  0  0  0  0  0
   17.7245    1.9627   -4.8624 O   0  0  0  0  0  0  0  0  0  0  0  0
   15.6934    1.0686   -4.2743 N   0  0  0  0  0  0  0  0  0  0  0  0
   15.3938    2.0232   -3.2246 C   0  0  0  0  0  0  0  0  0  0  0  0
   15.0968    1.3422   -1.9158 C   0  0  0  0  0  0  0  0  0  0  0  0
   13.8233    1.3778   -1.3575 C   0  0  0  0  0  0  0  0  0  0  0  0
   13.5663    0.7499   -0.1503 C   0  0  0  0  0  0  0  0  0  0  0  0
   14.5693    0.0686    0.5319 C   0  0  0  0  0  0  0  0  0  0  0  0
   14.2965   -0.5966    1.7999 C   0  0  0  0  0  0  0  0  0  0  0  0
   14.5155   -1.9078    2.2026 C   0  0  0  0  0  0  0  0  0  0  0  0
   15.1215   -2.9960    1.4035 C   0  0  0  0  0  0  0  0  0  0  0  0
   14.1016   -2.2060    3.4858 N   0  0  0  0  0  0  0  0  0  0  0  0
   13.6083   -1.1278    4.0509 C   0  0  0  0  0  0  0  0  0  0  0  0
   13.6166    0.2935    3.1055 S   0  0  0  0  0  0  0  0  0  0  0  0
   15.8415    0.0369   -0.0273 C   0  0  0  0  0  0  0  0  0  0  0  0
   16.1015    0.6675   -1.2313 C   0  0  0  0  0  0  0  0  0  0  0  0
   16.0190    0.6896   -7.3187 C   0  0  0  0  0  0  0  0  0  0  0  0
   15.3835   -0.5413   -7.9288 C   0  0  1  0  0  0  0  0  0  0  0  0
   16.2268   -1.0798   -8.9559 O   0  0  0  0  0  0  0  0  0  0  0  0
   15.2578   -1.5146   -6.7666 C   0  0  0  0  0  0  0  0  0  0  0  0
   18.5546   -6.6139   -5.5036 C   0  0  0  0  0  0  0  0  0  0  0  0
   18.5102   -4.1984   -4.7726 H   0  0  0  0  0  0  0  0  0  0  0  0
   15.7251   -3.7020   -5.4657 H   0  0  0  0  0  0  0  0  0  0  0  0
   14.7682   -5.2936   -3.5489 H   0  0  0  0  0  0  0  0  0  0  0  0
   15.0174   -4.8307   -1.8744 H   0  0  0  0  0  0  0  0  0  0  0  0
   16.3413   -5.5389   -2.7787 H   0  0  0  0  0  0  0  0  0  0  0  0
   13.9098   -2.8996   -3.9863 H   0  0  0  0  0  0  0  0  0  0  0  0
   14.8884   -1.5236   -3.4783 H   0  0  0  0  0  0  0  0  0  0  0  0
   14.1935   -2.5901   -2.2736 H   0  0  0  0  0  0  0  0  0  0  0  0
   17.1896   -1.8759   -2.4593 H   0  0  0  0  0  0  0  0  0  0  0  0
   17.8594   -3.4982   -2.3104 H   0  0  0  0  0  0  0  0  0  0  0  0
   16.5389   -2.9906   -1.2687 H   0  0  0  0  0  0  0  0  0  0  0  0
   17.9458    0.0424   -6.5238 H   0  0  0  0  0  0  0  0  0  0  0  0
   15.0005    0.3622   -4.4906 H   0  0  0  0  0  0  0  0  0  0  0  0
   16.2194    2.7310   -3.0969 H   0  0  0  0  0  0  0  0  0  0  0  0
   14.5265    2.5995   -3.5634 H   0  0  0  0  0  0  0  0  0  0  0  0
   13.0152    1.9022   -1.8596 H   0  0  0  0  0  0  0  0  0  0  0  0
   12.5622    0.7933    0.2574 H   0  0  0  0  0  0  0  0  0  0  0  0
   15.0026   -3.9568    1.9077 H   0  0  0  0  0  0  0  0  0  0  0  0
   16.1930   -2.8269    1.2678 H   0  0  0  0  0  0  0  0  0  0  0  0
   14.6519   -3.0733    0.4188 H   0  0  0  0  0  0  0  0  0  0  0  0
   13.2213   -1.1298    5.0596 H   0  0  0  0  0  0  0  0  0  0  0  0
   16.6547   -0.4736    0.4798 H   0  0  0  0  0  0  0  0  0  0  0  0
   17.1076    0.6288   -1.6405 H   0  0  0  0  0  0  0  0  0  0  0  0
   15.2379    1.3505   -6.9267 H   0  0  0  0  0  0  0  0  0  0  0  0
   16.6033    1.2650   -8.0431 H   0  0  0  0  0  0  0  0  0  0  0  0
   14.4154   -0.3102   -8.3718 H   0  0  0  0  0  0  0  0  0  0  0  0
   17.1474   -1.0292   -8.6363 H   0  0  0  0  0  0  0  0  0  0  0  0
   15.3021   -2.5531   -7.1028 H   0  0  0  0  0  0  0  0  0  0  0  0
   14.3390   -1.3410   -6.1966 H   0  0  0  0  0  0  0  0  0  0  0  0
   18.5677   -7.0953   -6.4853 H   0  0  0  0  0  0  0  0  0  0  0  0
   18.5380   -7.3820   -4.7258 H   0  0  0  0  0  0  0  0  0  0  0  0
   19.4648   -6.0166   -5.4024 H   0  0  0  0  0  0  0  0  0  0  0  0
  1  2  2  0  0  0  0
  2  3  1  0  0  0  0
  2 33  1  0  0  0  0
  4  3  1  0  0  0  0
  3 34  1  0  0  0  0
  4  5  1  0  0  0  0
  4 35  1  0  0  0  0
  4  9  1  0  0  0  0
  5  6  1  0  0  0  0
  5  7  1  0  0  0  0
  5  8  1  0  0  0  0
  6 36  1  0  0  0  0
  6 37  1  0  0  0  0
  6 38  1  0  0  0  0
  7 39  1  0  0  0  0
  7 40  1  0  0  0  0
  7 41  1  0  0  0  0
  8 42  1  0  0  0  0
  8 43  1  0  0  0  0
  8 44  1  0  0  0  0
  9 10  2  0  0  0  0
  9 11  1  0  0  0  0
 11 32  1  0  0  0  0
 12 11  1  0  0  0  0
 12 29  1  0  0  0  0
 12 45  1  0  0  0  0
 12 13  1  0  0  0  0
 13 14  2  0  0  0  0
 13 15  1  0  0  0  0
 15 46  1  0  0  0  0
 15 16  1  0  0  0  0
 16 47  1  0  0  0  0
 16 48  1  0  0  0  0
 16 17  1  0  0  0  0
 17 18  1  0  0  0  0
 17 28  2  0  0  0  0
 18 49  1  0  0  0  0
 18 19  2  0  0  0  0
 19 50  1  0  0  0  0
 19 20  1  0  0  0  0
 20 27  2  0  0  0  0
 20 21  1  0  0  0  0
 21 22  2  0  0  0  0
 21 26  1  0  0  0  0
 22 23  1  0  0  0  0
 22 24  1  0  0  0  0
 23 51  1  0  0  0  0
 23 52  1  0  0  0  0
 23 53  1  0  0  0  0
 24 25  2  0  0  0  0
 25 54  1  0  0  0  0
 25 26  1  0  0  0  0
 27 55  1  0  0  0  0
 27 28  1  0  0  0  0
 28 56  1  0  0  0  0
 30 29  1  0  0  0  0
 29 57  1  0  0  0  0
 29 58  1  0  0  0  0
 30 32  1  0  0  0  0
 30 59  1  0  0  0  0
 30 31  1  0  0  0  0
 31 60  1  0  0  0  0
 32 61  1  0  0  0  0
 32 62  1  0  0  0  0
 33 63  1  0  0  0  0
 33 64  1  0  0  0  0
 33 65  1  0  0  0  0
M  ZZC   1 o1
M  ZZC   2 c1
M  ZZC   3 n1
M  ZZC   4 c2
M  ZZC   5 c3
M  ZZC   6 c4
M  ZZC   7 c5
M  ZZC   8 c6
M  ZZC   9 c7
M  ZZC  10 o2
M  ZZC  11 n2
M  ZZC  12 c8
M  ZZC  13 c9
M  ZZC  14 o3
M  ZZC  15 n3
M  ZZC  16 c10
M  ZZC  17 c11
M  ZZC  18 c12
M  ZZC  19 c13
M  ZZC  20 c14
M  ZZC  21 c15
M  ZZC  22 c16
M  ZZC  23 c17
M  ZZC  24 n4
M  ZZC  25 c18
M  ZZC  26 s1
M  ZZC  27 c19
M  ZZC  28 c20
M  ZZC  29 c21
M  ZZC  30 c22
M  ZZC  31 o4
M  ZZC  32 c23
M  ZZC  33 c24
M  ZZC  34 h11
M  ZZC  35 h21
M  ZZC  36 h41
M  ZZC  37 h42
M  ZZC  38 h43
M  ZZC  39 h51
M  ZZC  40 h52
M  ZZC  41 h53
M  ZZC  42 h61
M  ZZC  43 h62
M  ZZC  44 h63
M  ZZC  45 h81
M  ZZC  46 h31
M  ZZC  47 h101
M  ZZC  48 h102
M  ZZC  49 h121
M  ZZC  50 h131
M  ZZC  51 h171
M  ZZC  52 h172
M  ZZC  53 h173
M  ZZC  54 h181
M  ZZC  55 h191
M  ZZC  56 h201
M  ZZC  57 h211
M  ZZC  58 h212
M  ZZC  59 h221
M  ZZC  60 h01
M  ZZC  61 h231
M  ZZC  62 h232
M  ZZC  63 h241
M  ZZC  64 h242
M  ZZC  65 h243
M  ZZM   1 7
M  ZZI   1 81
M  ZZM   2 3
M  ZZI   2 121
M  ZZM   3 10
M  ZZI   3 211
M  ZZM   4 1
M  ZZI   4 113
M  ZZM   5 1
M  ZZI   5 110
M  ZZM   6 1
M  ZZI   6 111
M  ZZM   7 1
M  ZZI   7 111
M  ZZM   8 1
M  ZZI   8 111
M  ZZM   9 3
M  ZZI   9 121
M  ZZM  10 7
M  ZZI  10 81
M  ZZM  11 10
M  ZZI  11 192
M  ZZM  12 1
M  ZZI  12 113
M  ZZM  13 3
M  ZZI  13 121
M  ZZM  14 7
M  ZZI  14 81
M  ZZM  15 10
M  ZZI  15 211
M  ZZM  16 1
M  ZZI  16 112
M  ZZM  17 37
M  ZZI  17 124
M  ZZM  18 37
M  ZZI  18 125
M  ZZM  19 37
M  ZZI  19 125
M  ZZM  20 37
M  ZZI  20 124
M  ZZM  21 63
M  ZZI  21 104
M  ZZM  22 64
M  ZZI  22 105
M  ZZM  23 1
M  ZZI  23 111
M  ZZM  24 66
M  ZZI  24 222
M  ZZM  25 63
M  ZZI  25 104
M  ZZM  26 44
M  ZZI  26 248
M  ZZM  27 37
M  ZZI  27 125
M  ZZM  28 37
M  ZZI  28 125
M  ZZM  29 1
M  ZZI  29 112
M  ZZM  30 1
M  ZZI  30 113
M  ZZM  31 6
M  ZZI  31 60
M  ZZM  32 1
M  ZZI  32 112
M  ZZM  33 1
M  ZZI  33 111
M  ZZM  34 28
M  ZZI  34 11
M  ZZM  35 5
M  ZZI  35 1
M  ZZM  36 5
M  ZZI  36 1
M  ZZM  37 5
M  ZZI  37 1
M  ZZM  38 5
M  ZZI  38 1
M  ZZM  39 5
M  ZZI  39 1
M  ZZM  40 5
M  ZZI  40 1
M  ZZM  41 5
M  ZZI  41 1
M  ZZM  42 5
M  ZZI  42 1
M  ZZM  43 5
M  ZZI  43 1
M  ZZM  44 5
M  ZZI  44 1
M  ZZM  45 5
M  ZZI  45 1
M  ZZM  46 28
M  ZZI  46 11
M  ZZM  47 5
M  ZZI  47 1
M  ZZM  48 5
M  ZZI  48 1
M  ZZM  49 5
M  ZZI  49 1
M  ZZM  50 5
M  ZZI  50 1
M  ZZM  51 5
M  ZZI  51 1
M  ZZM  52 5
M  ZZI  52 1
M  ZZM  53 5
M  ZZI  53 1
M  ZZM  54 5
M  ZZI  54 1
M  ZZM  55 5
M  ZZI  55 1
M  ZZM  56 5
M  ZZI  56 1
M  ZZM  57 5
M  ZZI  57 1
M  ZZM  58 5
M  ZZI  58 1
M  ZZM  59 5
M  ZZI  59 1
M  ZZM  60 21
M  ZZI  60 20
M  ZZM  61 5
M  ZZI  61 1
M  ZZM  62 5
M  ZZI  62 1
M  ZZM  63 5
M  ZZI  63 1
M  ZZM  64 5
M  ZZI  64 1
M  ZZM  65 5
M  ZZI  65 1
M  END
> <IX>
1

> <NAME>
VHL_5EU1_11.pdb

> <Score>
-29.338134

> <Natom>
65

> <Nflex>
8

> <Hbond>
-7.865222

> <Hphob>
-6.869908

> <VwInt>
-27.93644

> <Dsolv>
16.049572

> <SolEl>
6.446187

> <Eintl>
3.347492

> <RecConf>
ND

> <projPath>
VHL_maps/

> <NAME_>
VHL_5EU1_11.pdb

$$$$
