VHL_2HYY_4.pdb
  MOLSOFT 04032206373D

 65 67  0  0  1  0  0  0  0  0999 V2000
   15.3196   -5.3006   -3.3439 O   0  0  0  0  0  0  0  0  0  0  0  0
   16.4348   -5.1129   -3.8048 C   0  0  0  0  0  0  0  0  0  0  0  0
   17.0442   -3.8778   -3.8644 N   0  0  0  0  0  0  0  0  0  0  0  0
   16.3204   -2.6411   -3.5570 C   0  0  1  0  0  0  0  0  0  0  0  0
   16.5908   -2.0753   -2.1298 C   0  0  0  0  0  0  0  0  0  0  0  0
   18.0272   -1.5565   -1.9619 C   0  0  0  0  0  0  0  0  0  0  0  0
   16.3409   -3.1601   -1.0687 C   0  0  0  0  0  0  0  0  0  0  0  0
   15.6231   -0.9163   -1.8442 C   0  0  0  0  0  0  0  0  0  0  0  0
   16.7029   -1.6820   -4.7017 C   0  0  0  0  0  0  0  0  0  0  0  0
   17.8775   -1.4587   -4.9706 O   0  0  0  0  0  0  0  0  0  0  0  0
   15.6594   -1.1351   -5.4463 N   0  0  0  0  0  0  0  0  0  0  0  0
   15.9194   -0.3723   -6.6585 C   0  0  2  0  0  0  0  0  0  0  0  0
   16.2681    1.0839   -6.3366 C   0  0  0  0  0  0  0  0  0  0  0  0
   15.5996    1.7725   -5.5771 O   0  0  0  0  0  0  0  0  0  0  0  0
   17.3876    1.5472   -7.0031 N   0  0  0  0  0  0  0  0  0  0  0  0
   17.8565    2.9140   -6.8366 C   0  0  0  0  0  0  0  0  0  0  0  0
   19.3228    3.1382   -7.1324 C   0  0  0  0  0  0  0  0  0  0  0  0
   20.2417    2.0993   -7.2367 C   0  0  0  0  0  0  0  0  0  0  0  0
   21.5840    2.3541   -7.4389 C   0  0  0  0  0  0  0  0  0  0  0  0
   22.0680    3.6510   -7.5113 C   0  0  0  0  0  0  0  0  0  0  0  0
   23.4993    3.8897   -7.6188 C   0  0  0  0  0  0  0  0  0  0  0  0
   24.3520    3.8865   -8.7147 C   0  0  0  0  0  0  0  0  0  0  0  0
   23.9856    3.6862  -10.1334 C   0  0  0  0  0  0  0  0  0  0  0  0
   25.6850    4.0876   -8.4184 N   0  0  0  0  0  0  0  0  0  0  0  0
   25.8308    4.2641   -7.1249 C   0  0  0  0  0  0  0  0  0  0  0  0
   24.4027    4.2094   -6.1904 S   0  0  0  0  0  0  0  0  0  0  0  0
   21.1569    4.6961   -7.4324 C   0  0  0  0  0  0  0  0  0  0  0  0
   19.8054    4.4404   -7.2483 C   0  0  0  0  0  0  0  0  0  0  0  0
   14.6160   -0.4652   -7.4342 C   0  0  0  0  0  0  0  0  0  0  0  0
   13.5449   -0.5746   -6.3585 C   0  0  1  0  0  0  0  0  0  0  0  0
   12.4096   -1.2997   -6.8308 O   0  0  0  0  0  0  0  0  0  0  0  0
   14.2364   -1.3509   -5.2509 C   0  0  0  0  0  0  0  0  0  0  0  0
   17.2638   -6.2313   -4.3806 C   0  0  0  0  0  0  0  0  0  0  0  0
   17.9982   -3.8107   -4.2076 H   0  0  0  0  0  0  0  0  0  0  0  0
   15.2578   -2.8864   -3.6220 H   0  0  0  0  0  0  0  0  0  0  0  0
   18.7582   -2.3082   -2.2628 H   0  0  0  0  0  0  0  0  0  0  0  0
   18.2396   -1.2959   -0.9202 H   0  0  0  0  0  0  0  0  0  0  0  0
   18.2114   -0.6558   -2.5547 H   0  0  0  0  0  0  0  0  0  0  0  0
   15.3326   -3.5789   -1.1529 H   0  0  0  0  0  0  0  0  0  0  0  0
   16.4383   -2.7582   -0.0549 H   0  0  0  0  0  0  0  0  0  0  0  0
   17.0552   -3.9845   -1.1507 H   0  0  0  0  0  0  0  0  0  0  0  0
   14.5792   -1.2429   -1.9015 H   0  0  0  0  0  0  0  0  0  0  0  0
   15.7534   -0.0930   -2.5534 H   0  0  0  0  0  0  0  0  0  0  0  0
   15.7773   -0.5043   -0.8415 H   0  0  0  0  0  0  0  0  0  0  0  0
   16.7410   -0.8358   -7.2169 H   0  0  0  0  0  0  0  0  0  0  0  0
   17.8737    0.9262   -7.6428 H   0  0  0  0  0  0  0  0  0  0  0  0
   17.2477    3.5290   -7.5084 H   0  0  0  0  0  0  0  0  0  0  0  0
   17.6484    3.2341   -5.8100 H   0  0  0  0  0  0  0  0  0  0  0  0
   19.9309    1.0654   -7.1442 H   0  0  0  0  0  0  0  0  0  0  0  0
   22.2612    1.5132   -7.5207 H   0  0  0  0  0  0  0  0  0  0  0  0
   23.7151    2.6445  -10.3178 H   0  0  0  0  0  0  0  0  0  0  0  0
   24.8223    3.9333  -10.7929 H   0  0  0  0  0  0  0  0  0  0  0  0
   23.1432    4.3247  -10.4133 H   0  0  0  0  0  0  0  0  0  0  0  0
   26.7967    4.4358   -6.6713 H   0  0  0  0  0  0  0  0  0  0  0  0
   21.4981    5.7253   -7.4938 H   0  0  0  0  0  0  0  0  0  0  0  0
   19.1221    5.2813   -7.1718 H   0  0  0  0  0  0  0  0  0  0  0  0
   14.4421    0.3799   -8.1086 H   0  0  0  0  0  0  0  0  0  0  0  0
   14.6224   -1.3746   -8.0447 H   0  0  0  0  0  0  0  0  0  0  0  0
   13.2210    0.4109   -6.0056 H   0  0  0  0  0  0  0  0  0  0  0  0
   11.9742   -0.7683   -7.5222 H   0  0  0  0  0  0  0  0  0  0  0  0
   14.0178   -2.4219   -5.3081 H   0  0  0  0  0  0  0  0  0  0  0  0
   13.9362   -0.9981   -4.2602 H   0  0  0  0  0  0  0  0  0  0  0  0
   16.7417   -6.7492   -5.1905 H   0  0  0  0  0  0  0  0  0  0  0  0
   17.4793   -6.9574   -3.5909 H   0  0  0  0  0  0  0  0  0  0  0  0
   18.2015   -5.8265   -4.7670 H   0  0  0  0  0  0  0  0  0  0  0  0
  1  2  2  0  0  0  0
  2  3  1  0  0  0  0
  2 33  1  0  0  0  0
  4  3  1  0  0  0  0
  3 34  1  0  0  0  0
  4  5  1  0  0  0  0
  4 35  1  0  0  0  0
  4  9  1  0  0  0  0
  5  6  1  0  0  0  0
  5  7  1  0  0  0  0
  5  8  1  0  0  0  0
  6 36  1  0  0  0  0
  6 37  1  0  0  0  0
  6 38  1  0  0  0  0
  7 39  1  0  0  0  0
  7 40  1  0  0  0  0
  7 41  1  0  0  0  0
  8 42  1  0  0  0  0
  8 43  1  0  0  0  0
  8 44  1  0  0  0  0
  9 10  2  0  0  0  0
  9 11  1  0  0  0  0
 11 32  1  0  0  0  0
 12 11  1  0  0  0  0
 12 29  1  0  0  0  0
 12 45  1  0  0  0  0
 12 13  1  0  0  0  0
 13 14  2  0  0  0  0
 13 15  1  0  0  0  0
 15 46  1  0  0  0  0
 15 16  1  0  0  0  0
 16 47  1  0  0  0  0
 16 48  1  0  0  0  0
 16 17  1  0  0  0  0
 17 18  1  0  0  0  0
 17 28  2  0  0  0  0
 18 49  1  0  0  0  0
 18 19  2  0  0  0  0
 19 50  1  0  0  0  0
 19 20  1  0  0  0  0
 20 27  2  0  0  0  0
 20 21  1  0  0  0  0
 21 22  2  0  0  0  0
 21 26  1  0  0  0  0
 22 23  1  0  0  0  0
 22 24  1  0  0  0  0
 23 51  1  0  0  0  0
 23 52  1  0  0  0  0
 23 53  1  0  0  0  0
 24 25  2  0  0  0  0
 25 54  1  0  0  0  0
 25 26  1  0  0  0  0
 27 55  1  0  0  0  0
 27 28  1  0  0  0  0
 28 56  1  0  0  0  0
 30 29  1  0  0  0  0
 29 57  1  0  0  0  0
 29 58  1  0  0  0  0
 30 32  1  0  0  0  0
 30 59  1  0  0  0  0
 30 31  1  0  0  0  0
 31 60  1  0  0  0  0
 32 61  1  0  0  0  0
 32 62  1  0  0  0  0
 33 63  1  0  0  0  0
 33 64  1  0  0  0  0
 33 65  1  0  0  0  0
M  ZZC   1 o1
M  ZZC   2 c1
M  ZZC   3 n1
M  ZZC   4 c2
M  ZZC   5 c3
M  ZZC   6 c4
M  ZZC   7 c5
M  ZZC   8 c6
M  ZZC   9 c7
M  ZZC  10 o2
M  ZZC  11 n2
M  ZZC  12 c8
M  ZZC  13 c9
M  ZZC  14 o3
M  ZZC  15 n3
M  ZZC  16 c10
M  ZZC  17 c11
M  ZZC  18 c12
M  ZZC  19 c13
M  ZZC  20 c14
M  ZZC  21 c15
M  ZZC  22 c16
M  ZZC  23 c17
M  ZZC  24 n4
M  ZZC  25 c18
M  ZZC  26 s1
M  ZZC  27 c19
M  ZZC  28 c20
M  ZZC  29 c21
M  ZZC  30 c22
M  ZZC  31 o4
M  ZZC  32 c23
M  ZZC  33 c24
M  ZZC  34 h11
M  ZZC  35 h21
M  ZZC  36 h41
M  ZZC  37 h42
M  ZZC  38 h43
M  ZZC  39 h51
M  ZZC  40 h52
M  ZZC  41 h53
M  ZZC  42 h61
M  ZZC  43 h62
M  ZZC  44 h63
M  ZZC  45 h81
M  ZZC  46 h31
M  ZZC  47 h101
M  ZZC  48 h102
M  ZZC  49 h121
M  ZZC  50 h131
M  ZZC  51 h171
M  ZZC  52 h172
M  ZZC  53 h173
M  ZZC  54 h181
M  ZZC  55 h191
M  ZZC  56 h201
M  ZZC  57 h211
M  ZZC  58 h212
M  ZZC  59 h221
M  ZZC  60 h01
M  ZZC  61 h231
M  ZZC  62 h232
M  ZZC  63 h241
M  ZZC  64 h242
M  ZZC  65 h243
M  ZZM   1 7
M  ZZI   1 81
M  ZZM   2 3
M  ZZI   2 121
M  ZZM   3 10
M  ZZI   3 211
M  ZZM   4 1
M  ZZI   4 113
M  ZZM   5 1
M  ZZI   5 110
M  ZZM   6 1
M  ZZI   6 111
M  ZZM   7 1
M  ZZI   7 111
M  ZZM   8 1
M  ZZI   8 111
M  ZZM   9 3
M  ZZI   9 121
M  ZZM  10 7
M  ZZI  10 81
M  ZZM  11 10
M  ZZI  11 192
M  ZZM  12 1
M  ZZI  12 113
M  ZZM  13 3
M  ZZI  13 121
M  ZZM  14 7
M  ZZI  14 81
M  ZZM  15 10
M  ZZI  15 211
M  ZZM  16 1
M  ZZI  16 112
M  ZZM  17 37
M  ZZI  17 124
M  ZZM  18 37
M  ZZI  18 125
M  ZZM  19 37
M  ZZI  19 125
M  ZZM  20 37
M  ZZI  20 124
M  ZZM  21 63
M  ZZI  21 104
M  ZZM  22 64
M  ZZI  22 105
M  ZZM  23 1
M  ZZI  23 111
M  ZZM  24 66
M  ZZI  24 222
M  ZZM  25 63
M  ZZI  25 104
M  ZZM  26 44
M  ZZI  26 248
M  ZZM  27 37
M  ZZI  27 125
M  ZZM  28 37
M  ZZI  28 125
M  ZZM  29 1
M  ZZI  29 112
M  ZZM  30 1
M  ZZI  30 113
M  ZZM  31 6
M  ZZI  31 60
M  ZZM  32 1
M  ZZI  32 112
M  ZZM  33 1
M  ZZI  33 111
M  ZZM  34 28
M  ZZI  34 11
M  ZZM  35 5
M  ZZI  35 1
M  ZZM  36 5
M  ZZI  36 1
M  ZZM  37 5
M  ZZI  37 1
M  ZZM  38 5
M  ZZI  38 1
M  ZZM  39 5
M  ZZI  39 1
M  ZZM  40 5
M  ZZI  40 1
M  ZZM  41 5
M  ZZI  41 1
M  ZZM  42 5
M  ZZI  42 1
M  ZZM  43 5
M  ZZI  43 1
M  ZZM  44 5
M  ZZI  44 1
M  ZZM  45 5
M  ZZI  45 1
M  ZZM  46 28
M  ZZI  46 11
M  ZZM  47 5
M  ZZI  47 1
M  ZZM  48 5
M  ZZI  48 1
M  ZZM  49 5
M  ZZI  49 1
M  ZZM  50 5
M  ZZI  50 1
M  ZZM  51 5
M  ZZI  51 1
M  ZZM  52 5
M  ZZI  52 1
M  ZZM  53 5
M  ZZI  53 1
M  ZZM  54 5
M  ZZI  54 1
M  ZZM  55 5
M  ZZI  55 1
M  ZZM  56 5
M  ZZI  56 1
M  ZZM  57 5
M  ZZI  57 1
M  ZZM  58 5
M  ZZI  58 1
M  ZZM  59 5
M  ZZI  59 1
M  ZZM  60 21
M  ZZI  60 20
M  ZZM  61 5
M  ZZI  61 1
M  ZZM  62 5
M  ZZI  62 1
M  ZZM  63 5
M  ZZI  63 1
M  ZZM  64 5
M  ZZI  64 1
M  ZZM  65 5
M  ZZI  65 1
M  END
> <IX>
1

> <NAME>
VHL_2HYY_4.pdb

> <Score>
-15.055388

> <Natom>
65

> <Nflex>
8

> <Hbond>
-4.935291

> <Hphob>
-6.317287

> <VwInt>
-31.479205

> <Dsolv>
17.657391

> <SolEl>
17.664246

> <Eintl>
5.735402

> <RecConf>
ND

> <projPath>
VHL_maps/

> <NAME_>
VHL_2HYY_4.pdb

$$$$
