VHL_5G0J_15.pdb
  MOLSOFT 04032206413D

 65 67  0  0  1  0  0  0  0  0999 V2000
   18.1154   -6.6488   -5.1177 C   0  0  0  0  0  0  0  0  0  0  0  0
   16.9008   -5.7752   -4.9629 C   0  0  0  0  0  0  0  0  0  0  0  0
   15.8159   -6.1321   -5.3883 O   0  0  0  0  0  0  0  0  0  0  0  0
   17.1433   -4.5993   -4.2803 N   0  0  0  0  0  0  0  0  0  0  0  0
   16.1344   -3.5610   -4.0124 C   0  0  1  0  0  0  0  0  0  0  0  0
   15.8953   -3.3654   -2.4856 C   0  0  0  0  0  0  0  0  0  0  0  0
   14.7912   -2.3448   -2.1860 C   0  0  0  0  0  0  0  0  0  0  0  0
   15.4302   -4.7038   -1.8993 C   0  0  0  0  0  0  0  0  0  0  0  0
   17.1613   -2.9029   -1.7501 C   0  0  0  0  0  0  0  0  0  0  0  0
   16.6264   -2.3219   -4.7903 C   0  0  0  0  0  0  0  0  0  0  0  0
   17.8209   -2.0524   -4.8461 O   0  0  0  0  0  0  0  0  0  0  0  0
   15.6726   -1.5524   -5.4645 N   0  0  0  0  0  0  0  0  0  0  0  0
   16.0640   -0.6411   -6.5299 C   0  0  2  0  0  0  0  0  0  0  0  0
   16.4449    0.7516   -6.0206 C   0  0  0  0  0  0  0  0  0  0  0  0
   15.9156    1.2747   -5.0493 O   0  0  0  0  0  0  0  0  0  0  0  0
   17.3869    1.3816   -6.8125 N   0  0  0  0  0  0  0  0  0  0  0  0
   17.8396    2.7357   -6.5398 C   0  0  0  0  0  0  0  0  0  0  0  0
   19.2471    3.0172   -7.0098 C   0  0  0  0  0  0  0  0  0  0  0  0
   20.1907    2.0049   -7.1278 C   0  0  0  0  0  0  0  0  0  0  0  0
   21.4897    2.2816   -7.5002 C   0  0  0  0  0  0  0  0  0  0  0  0
   21.9004    3.5790   -7.7604 C   0  0  0  0  0  0  0  0  0  0  0  0
   23.2843    3.8400   -8.1221 C   0  0  0  0  0  0  0  0  0  0  0  0
   24.3547    4.2555   -7.3432 C   0  0  0  0  0  0  0  0  0  0  0  0
   24.3281    4.5826   -5.8997 C   0  0  0  0  0  0  0  0  0  0  0  0
   25.5626    4.3370   -8.0069 N   0  0  0  0  0  0  0  0  0  0  0  0
   25.3969    4.0089   -9.2685 C   0  0  0  0  0  0  0  0  0  0  0  0
   23.8096    3.5952   -9.7394 S   0  0  0  0  0  0  0  0  0  0  0  0
   20.9678    4.6018   -7.6414 C   0  0  0  0  0  0  0  0  0  0  0  0
   19.6596    4.3224   -7.2699 C   0  0  0  0  0  0  0  0  0  0  0  0
   14.8265   -0.5712   -7.4106 C   0  0  0  0  0  0  0  0  0  0  0  0
   13.6744   -0.6924   -6.4243 C   0  0  1  0  0  0  0  0  0  0  0  0
   12.5332   -1.3100   -7.0135 O   0  0  0  0  0  0  0  0  0  0  0  0
   14.2264   -1.5809   -5.3226 C   0  0  0  0  0  0  0  0  0  0  0  0
   19.0190   -6.0462   -5.2498 H   0  0  0  0  0  0  0  0  0  0  0  0
   17.9950   -7.2863   -5.9988 H   0  0  0  0  0  0  0  0  0  0  0  0
   18.2161   -7.2797   -4.2315 H   0  0  0  0  0  0  0  0  0  0  0  0
   18.1039   -4.3939   -4.0302 H   0  0  0  0  0  0  0  0  0  0  0  0
   15.2020   -3.9076   -4.4580 H   0  0  0  0  0  0  0  0  0  0  0  0
   15.0738   -1.3379   -2.5056 H   0  0  0  0  0  0  0  0  0  0  0  0
   14.5862   -2.2822   -1.1121 H   0  0  0  0  0  0  0  0  0  0  0  0
   13.8495   -2.6217   -2.6695 H   0  0  0  0  0  0  0  0  0  0  0  0
   15.1764   -4.6006   -0.8415 H   0  0  0  0  0  0  0  0  0  0  0  0
   16.2000   -5.4728   -1.9849 H   0  0  0  0  0  0  0  0  0  0  0  0
   14.5397   -5.0800   -2.4127 H   0  0  0  0  0  0  0  0  0  0  0  0
   16.9853   -2.8101   -0.6735 H   0  0  0  0  0  0  0  0  0  0  0  0
   17.5065   -1.9279   -2.1073 H   0  0  0  0  0  0  0  0  0  0  0  0
   17.9813   -3.6077   -1.8752 H   0  0  0  0  0  0  0  0  0  0  0  0
   16.9119   -1.0635   -7.0791 H   0  0  0  0  0  0  0  0  0  0  0  0
   17.7840    0.8807   -7.6025 H   0  0  0  0  0  0  0  0  0  0  0  0
   17.1353    3.4021   -7.0497 H   0  0  0  0  0  0  0  0  0  0  0  0
   17.7705    2.9304   -5.4643 H   0  0  0  0  0  0  0  0  0  0  0  0
   19.9232    0.9742   -6.9276 H   0  0  0  0  0  0  0  0  0  0  0  0
   22.1889    1.4593   -7.5878 H   0  0  0  0  0  0  0  0  0  0  0  0
   25.2999    4.9566   -5.5650 H   0  0  0  0  0  0  0  0  0  0  0  0
   24.0834    3.7009   -5.3003 H   0  0  0  0  0  0  0  0  0  0  0  0
   23.5739    5.3451   -5.6917 H   0  0  0  0  0  0  0  0  0  0  0  0
   26.2133    4.0016   -9.9764 H   0  0  0  0  0  0  0  0  0  0  0  0
   21.2566    5.6305   -7.8357 H   0  0  0  0  0  0  0  0  0  0  0  0
   18.9555    5.1441   -7.1761 H   0  0  0  0  0  0  0  0  0  0  0  0
   14.7602    0.3436   -8.0091 H   0  0  0  0  0  0  0  0  0  0  0  0
   14.8154   -1.4170   -8.1068 H   0  0  0  0  0  0  0  0  0  0  0  0
   13.3806    0.2859   -6.0267 H   0  0  0  0  0  0  0  0  0  0  0  0
   12.1859   -0.7160   -7.7034 H   0  0  0  0  0  0  0  0  0  0  0  0
   13.8452   -2.6026   -5.3585 H   0  0  0  0  0  0  0  0  0  0  0  0
   13.9546   -1.1556   -4.3566 H   0  0  0  0  0  0  0  0  0  0  0  0
  1 34  1  0  0  0  0
  1 35  1  0  0  0  0
  1 36  1  0  0  0  0
  1  2  1  0  0  0  0
  2  3  2  0  0  0  0
  2  4  1  0  0  0  0
  4 37  1  0  0  0  0
  5  4  1  0  0  0  0
  5 38  1  0  0  0  0
  5  6  1  0  0  0  0
  5 10  1  0  0  0  0
  6  7  1  0  0  0  0
  6  8  1  0  0  0  0
  6  9  1  0  0  0  0
  7 39  1  0  0  0  0
  7 40  1  0  0  0  0
  7 41  1  0  0  0  0
  8 42  1  0  0  0  0
  8 43  1  0  0  0  0
  8 44  1  0  0  0  0
  9 45  1  0  0  0  0
  9 46  1  0  0  0  0
  9 47  1  0  0  0  0
 10 11  2  0  0  0  0
 10 12  1  0  0  0  0
 12 33  1  0  0  0  0
 13 12  1  0  0  0  0
 13 30  1  0  0  0  0
 13 48  1  0  0  0  0
 13 14  1  0  0  0  0
 14 15  2  0  0  0  0
 14 16  1  0  0  0  0
 16 49  1  0  0  0  0
 16 17  1  0  0  0  0
 17 50  1  0  0  0  0
 17 51  1  0  0  0  0
 17 18  1  0  0  0  0
 18 19  1  0  0  0  0
 18 29  2  0  0  0  0
 19 52  1  0  0  0  0
 19 20  2  0  0  0  0
 20 53  1  0  0  0  0
 20 21  1  0  0  0  0
 21 28  2  0  0  0  0
 21 22  1  0  0  0  0
 22 23  2  0  0  0  0
 22 27  1  0  0  0  0
 23 24  1  0  0  0  0
 23 25  1  0  0  0  0
 24 54  1  0  0  0  0
 24 55  1  0  0  0  0
 24 56  1  0  0  0  0
 25 26  2  0  0  0  0
 26 57  1  0  0  0  0
 26 27  1  0  0  0  0
 28 58  1  0  0  0  0
 28 29  1  0  0  0  0
 29 59  1  0  0  0  0
 31 30  1  0  0  0  0
 30 60  1  0  0  0  0
 30 61  1  0  0  0  0
 31 33  1  0  0  0  0
 31 62  1  0  0  0  0
 31 32  1  0  0  0  0
 32 63  1  0  0  0  0
 33 64  1  0  0  0  0
 33 65  1  0  0  0  0
M  ZZC   1 c1
M  ZZC   2 c2
M  ZZC   3 o1
M  ZZC   4 n1
M  ZZC   5 c3
M  ZZC   6 c4
M  ZZC   7 c5
M  ZZC   8 c6
M  ZZC   9 c7
M  ZZC  10 c8
M  ZZC  11 o2
M  ZZC  12 n2
M  ZZC  13 c9
M  ZZC  14 c10
M  ZZC  15 o3
M  ZZC  16 n3
M  ZZC  17 c11
M  ZZC  18 c12
M  ZZC  19 c13
M  ZZC  20 c14
M  ZZC  21 c15
M  ZZC  22 c16
M  ZZC  23 c17
M  ZZC  24 c18
M  ZZC  25 n4
M  ZZC  26 c19
M  ZZC  27 s1
M  ZZC  28 c20
M  ZZC  29 c21
M  ZZC  30 c22
M  ZZC  31 c23
M  ZZC  32 o4
M  ZZC  33 c24
M  ZZC  34 h11
M  ZZC  35 h12
M  ZZC  36 h13
M  ZZC  37 h01
M  ZZC  38 h31
M  ZZC  39 h51
M  ZZC  40 h52
M  ZZC  41 h53
M  ZZC  42 h61
M  ZZC  43 h62
M  ZZC  44 h63
M  ZZC  45 h71
M  ZZC  46 h72
M  ZZC  47 h73
M  ZZC  48 h91
M  ZZC  49 h02
M  ZZC  50 h111
M  ZZC  51 h112
M  ZZC  52 h131
M  ZZC  53 h141
M  ZZC  54 h181
M  ZZC  55 h182
M  ZZC  56 h183
M  ZZC  57 h191
M  ZZC  58 h201
M  ZZC  59 h211
M  ZZC  60 h221
M  ZZC  61 h222
M  ZZC  62 h231
M  ZZC  63 h41
M  ZZC  64 h241
M  ZZC  65 h242
M  ZZM   1 1
M  ZZI   1 111
M  ZZM   2 3
M  ZZI   2 121
M  ZZM   3 7
M  ZZI   3 81
M  ZZM   4 10
M  ZZI   4 211
M  ZZM   5 1
M  ZZI   5 113
M  ZZM   6 1
M  ZZI   6 110
M  ZZM   7 1
M  ZZI   7 111
M  ZZM   8 1
M  ZZI   8 111
M  ZZM   9 1
M  ZZI   9 111
M  ZZM  10 3
M  ZZI  10 121
M  ZZM  11 7
M  ZZI  11 81
M  ZZM  12 10
M  ZZI  12 192
M  ZZM  13 1
M  ZZI  13 113
M  ZZM  14 3
M  ZZI  14 121
M  ZZM  15 7
M  ZZI  15 81
M  ZZM  16 10
M  ZZI  16 211
M  ZZM  17 1
M  ZZI  17 112
M  ZZM  18 37
M  ZZI  18 124
M  ZZM  19 37
M  ZZI  19 125
M  ZZM  20 37
M  ZZI  20 125
M  ZZM  21 37
M  ZZI  21 124
M  ZZM  22 63
M  ZZI  22 104
M  ZZM  23 64
M  ZZI  23 105
M  ZZM  24 1
M  ZZI  24 111
M  ZZM  25 66
M  ZZI  25 222
M  ZZM  26 63
M  ZZI  26 104
M  ZZM  27 44
M  ZZI  27 248
M  ZZM  28 37
M  ZZI  28 125
M  ZZM  29 37
M  ZZI  29 125
M  ZZM  30 1
M  ZZI  30 112
M  ZZM  31 1
M  ZZI  31 113
M  ZZM  32 6
M  ZZI  32 60
M  ZZM  33 1
M  ZZI  33 112
M  ZZM  34 5
M  ZZI  34 1
M  ZZM  35 5
M  ZZI  35 1
M  ZZM  36 5
M  ZZI  36 1
M  ZZM  37 28
M  ZZI  37 11
M  ZZM  38 5
M  ZZI  38 1
M  ZZM  39 5
M  ZZI  39 1
M  ZZM  40 5
M  ZZI  40 1
M  ZZM  41 5
M  ZZI  41 1
M  ZZM  42 5
M  ZZI  42 1
M  ZZM  43 5
M  ZZI  43 1
M  ZZM  44 5
M  ZZI  44 1
M  ZZM  45 5
M  ZZI  45 1
M  ZZM  46 5
M  ZZI  46 1
M  ZZM  47 5
M  ZZI  47 1
M  ZZM  48 5
M  ZZI  48 1
M  ZZM  49 28
M  ZZI  49 11
M  ZZM  50 5
M  ZZI  50 1
M  ZZM  51 5
M  ZZI  51 1
M  ZZM  52 5
M  ZZI  52 1
M  ZZM  53 5
M  ZZI  53 1
M  ZZM  54 5
M  ZZI  54 1
M  ZZM  55 5
M  ZZI  55 1
M  ZZM  56 5
M  ZZI  56 1
M  ZZM  57 5
M  ZZI  57 1
M  ZZM  58 5
M  ZZI  58 1
M  ZZM  59 5
M  ZZI  59 1
M  ZZM  60 5
M  ZZI  60 1
M  ZZM  61 5
M  ZZI  61 1
M  ZZM  62 5
M  ZZI  62 1
M  ZZM  63 21
M  ZZI  63 20
M  ZZM  64 5
M  ZZI  64 1
M  ZZM  65 5
M  ZZI  65 1
M  END
> <IX>
1

> <NAME>
VHL_5G0J_15.pdb

> <Score>
-11.827631

> <Natom>
65

> <Nflex>
8

> <Hbond>
-4.96992

> <Hphob>
-6.59515

> <VwInt>
-28.128059

> <Dsolv>
16.601484

> <SolEl>
17.086015

> <Eintl>
7.941988

> <RecConf>
ND

> <projPath>
VHL_maps/

> <NAME_>
VHL_5G0J_15.pdb

$$$$
