VHL_1ERR_31.pdb
  MOLSOFT 04032206353D

 66 68  0  0  1  0  0  0  0  0999 V2000
   15.8297   -6.2464   -5.4570 O   0  0  0  0  0  0  0  0  0  0  0  0
   16.9046   -5.9171   -4.9860 C   0  0  0  0  0  0  0  0  0  0  0  0
   17.1343   -4.7624   -4.2631 N   0  0  0  0  0  0  0  0  0  0  0  0
   16.1294   -3.7180   -4.0032 C   0  0  1  0  0  0  0  0  0  0  0  0
   15.8607   -3.5263   -2.4825 C   0  0  0  0  0  0  0  0  0  0  0  0
   15.3677   -4.8643   -1.9265 C   0  0  0  0  0  0  0  0  0  0  0  0
   14.7609   -2.4989   -2.1921 C   0  0  0  0  0  0  0  0  0  0  0  0
   17.1136   -3.0794   -1.7161 C   0  0  0  0  0  0  0  0  0  0  0  0
   16.6515   -2.4837   -4.7592 C   0  0  0  0  0  0  0  0  0  0  0  0
   17.8498   -2.2293   -4.7972 O   0  0  0  0  0  0  0  0  0  0  0  0
   15.7197   -1.6934   -5.4339 N   0  0  0  0  0  0  0  0  0  0  0  0
   16.1508   -0.7603   -6.4582 C   0  0  2  0  0  0  0  0  0  0  0  0
   16.5585    0.5854   -5.8557 C   0  0  0  0  0  0  0  0  0  0  0  0
   16.0341    1.0502   -4.8523 O   0  0  0  0  0  0  0  0  0  0  0  0
   17.5153    1.2520   -6.6012 N   0  0  0  0  0  0  0  0  0  0  0  0
   17.9579    2.5953   -6.2540 C   0  0  1  0  0  0  0  0  0  0  0  0
   19.3616    2.8516   -6.8023 C   0  0  0  0  0  0  0  0  0  0  0  0
   16.9745    3.6685   -6.6949 C   0  0  0  0  0  0  0  0  0  0  0  0
   17.0802    4.9621   -6.1959 C   0  0  0  0  0  0  0  0  0  0  0  0
   16.1599    5.9393   -6.5354 C   0  0  0  0  0  0  0  0  0  0  0  0
   15.0868    5.6834   -7.3801 C   0  0  0  0  0  0  0  0  0  0  0  0
   14.0689    6.7299   -7.6753 C   0  0  0  0  0  0  0  0  0  0  0  0
   13.5387    6.9333   -9.0708 C   0  0  0  0  0  0  0  0  0  0  0  0
   14.4507    7.9555   -8.4700 C   0  0  0  0  0  0  0  0  0  0  0  0
   14.9955    4.3942   -7.8898 C   0  0  0  0  0  0  0  0  0  0  0  0
   15.9196    3.4155   -7.5696 C   0  0  0  0  0  0  0  0  0  0  0  0
   14.9302   -0.6326   -7.3571 C   0  0  0  0  0  0  0  0  0  0  0  0
   13.7588   -0.7530   -6.3943 C   0  0  1  0  0  0  0  0  0  0  0  0
   12.6152   -1.3304   -7.0180 O   0  0  0  0  0  0  0  0  0  0  0  0
   14.2722   -1.6779   -5.3038 C   0  0  0  0  0  0  0  0  0  0  0  0
   18.1197   -6.7898   -5.1356 C   0  0  0  0  0  0  0  0  0  0  0  0
   18.0910   -4.5644   -3.9936 H   0  0  0  0  0  0  0  0  0  0  0  0
   15.2018   -4.0496   -4.4693 H   0  0  0  0  0  0  0  0  0  0  0  0
   14.4738   -5.2147   -2.4526 H   0  0  0  0  0  0  0  0  0  0  0  0
   15.1077   -4.7732   -0.8704 H   0  0  0  0  0  0  0  0  0  0  0  0
   16.1246   -5.6444   -2.0236 H   0  0  0  0  0  0  0  0  0  0  0  0
   13.8277   -2.7574   -2.7015 H   0  0  0  0  0  0  0  0  0  0  0  0
   15.0626   -1.4899   -2.4863 H   0  0  0  0  0  0  0  0  0  0  0  0
   14.5318   -2.4519   -1.1223 H   0  0  0  0  0  0  0  0  0  0  0  0
   17.4674   -2.0995   -2.0512 H   0  0  0  0  0  0  0  0  0  0  0  0
   17.9341   -3.7823   -1.8391 H   0  0  0  0  0  0  0  0  0  0  0  0
   16.9185   -3.0033   -0.6415 H   0  0  0  0  0  0  0  0  0  0  0  0
   17.0000   -1.1778   -7.0068 H   0  0  0  0  0  0  0  0  0  0  0  0
   17.9423    0.7869   -7.3975 H   0  0  0  0  0  0  0  0  0  0  0  0
   18.0109    2.6247   -5.1594 H   0  0  0  0  0  0  0  0  0  0  0  0
   19.7767    3.7899   -6.4226 H   0  0  0  0  0  0  0  0  0  0  0  0
   19.3665    2.9143   -7.8923 H   0  0  0  0  0  0  0  0  0  0  0  0
   20.0467    2.0465   -6.5217 H   0  0  0  0  0  0  0  0  0  0  0  0
   17.8806    5.2179   -5.5079 H   0  0  0  0  0  0  0  0  0  0  0  0
   16.2720    6.9305   -6.1072 H   0  0  0  0  0  0  0  0  0  0  0  0
   13.3428    6.8920   -6.8865 H   0  0  0  0  0  0  0  0  0  0  0  0
   13.9253    6.3191   -9.8733 H   0  0  0  0  0  0  0  0  0  0  0  0
   12.4931    7.1869   -9.1724 H   0  0  0  0  0  0  0  0  0  0  0  0
   14.0232    8.9041   -8.1701 H   0  0  0  0  0  0  0  0  0  0  0  0
   15.4527    8.0291   -8.8760 H   0  0  0  0  0  0  0  0  0  0  0  0
   14.1689    4.1358   -8.5453 H   0  0  0  0  0  0  0  0  0  0  0  0
   15.7826    2.4309   -7.9991 H   0  0  0  0  0  0  0  0  0  0  0  0
   14.8945    0.2968   -7.9320 H   0  0  0  0  0  0  0  0  0  0  0  0
   14.9079   -1.4568   -8.0788 H   0  0  0  0  0  0  0  0  0  0  0  0
   13.4790    0.2220   -5.9789 H   0  0  0  0  0  0  0  0  0  0  0  0
   12.2979   -0.7143   -7.7028 H   0  0  0  0  0  0  0  0  0  0  0  0
   13.8575   -2.6855   -5.3510 H   0  0  0  0  0  0  0  0  0  0  0  0
   14.0080   -1.2537   -4.3357 H   0  0  0  0  0  0  0  0  0  0  0  0
   18.0350   -7.3759   -6.0554 H   0  0  0  0  0  0  0  0  0  0  0  0
   18.1761   -7.4687   -4.2816 H   0  0  0  0  0  0  0  0  0  0  0  0
   19.0328   -6.1895   -5.1919 H   0  0  0  0  0  0  0  0  0  0  0  0
  1  2  2  0  0  0  0
  2  3  1  0  0  0  0
  2 31  1  0  0  0  0
  4  3  1  0  0  0  0
  3 32  1  0  0  0  0
  4  5  1  0  0  0  0
  4 33  1  0  0  0  0
  4  9  1  0  0  0  0
  5  6  1  0  0  0  0
  5  7  1  0  0  0  0
  5  8  1  0  0  0  0
  6 34  1  0  0  0  0
  6 35  1  0  0  0  0
  6 36  1  0  0  0  0
  7 37  1  0  0  0  0
  7 38  1  0  0  0  0
  7 39  1  0  0  0  0
  8 40  1  0  0  0  0
  8 41  1  0  0  0  0
  8 42  1  0  0  0  0
  9 10  2  0  0  0  0
  9 11  1  0  0  0  0
 11 30  1  0  0  0  0
 12 11  1  0  0  0  0
 12 27  1  0  0  0  0
 12 43  1  0  0  0  0
 12 13  1  0  0  0  0
 13 14  2  0  0  0  0
 13 15  1  0  0  0  0
 15 44  1  0  0  0  0
 16 15  1  0  0  0  0
 16 45  1  0  0  0  0
 16 17  1  0  0  0  0
 16 18  1  0  0  0  0
 17 46  1  0  0  0  0
 17 47  1  0  0  0  0
 17 48  1  0  0  0  0
 18 19  1  0  0  0  0
 18 26  2  0  0  0  0
 19 49  1  0  0  0  0
 19 20  2  0  0  0  0
 20 50  1  0  0  0  0
 20 21  1  0  0  0  0
 21 25  2  0  0  0  0
 21 22  1  0  0  0  0
 22 51  1  0  0  0  0
 22 23  1  0  0  0  0
 22 24  1  0  0  0  0
 23 52  1  0  0  0  0
 23 53  1  0  0  0  0
 23 24  1  0  0  0  0
 24 54  1  0  0  0  0
 24 55  1  0  0  0  0
 25 56  1  0  0  0  0
 25 26  1  0  0  0  0
 26 57  1  0  0  0  0
 28 27  1  0  0  0  0
 27 58  1  0  0  0  0
 27 59  1  0  0  0  0
 28 30  1  0  0  0  0
 28 60  1  0  0  0  0
 28 29  1  0  0  0  0
 29 61  1  0  0  0  0
 30 62  1  0  0  0  0
 30 63  1  0  0  0  0
 31 64  1  0  0  0  0
 31 65  1  0  0  0  0
 31 66  1  0  0  0  0
M  ZZC   1 o1
M  ZZC   2 c1
M  ZZC   3 n1
M  ZZC   4 c2
M  ZZC   5 c3
M  ZZC   6 c4
M  ZZC   7 c5
M  ZZC   8 c6
M  ZZC   9 c7
M  ZZC  10 o2
M  ZZC  11 n2
M  ZZC  12 c8
M  ZZC  13 c9
M  ZZC  14 o3
M  ZZC  15 n3
M  ZZC  16 c10
M  ZZC  17 c11
M  ZZC  18 c12
M  ZZC  19 c13
M  ZZC  20 c14
M  ZZC  21 c15
M  ZZC  22 c16
M  ZZC  23 c17
M  ZZC  24 c18
M  ZZC  25 c19
M  ZZC  26 c20
M  ZZC  27 c21
M  ZZC  28 c22
M  ZZC  29 o4
M  ZZC  30 c23
M  ZZC  31 c24
M  ZZC  32 h11
M  ZZC  33 h21
M  ZZC  34 h41
M  ZZC  35 h42
M  ZZC  36 h43
M  ZZC  37 h51
M  ZZC  38 h52
M  ZZC  39 h53
M  ZZC  40 h61
M  ZZC  41 h62
M  ZZC  42 h63
M  ZZC  43 h81
M  ZZC  44 h31
M  ZZC  45 h101
M  ZZC  46 h111
M  ZZC  47 h112
M  ZZC  48 h113
M  ZZC  49 h131
M  ZZC  50 h141
M  ZZC  51 h161
M  ZZC  52 h171
M  ZZC  53 h172
M  ZZC  54 h181
M  ZZC  55 h182
M  ZZC  56 h191
M  ZZC  57 h201
M  ZZC  58 h211
M  ZZC  59 h212
M  ZZC  60 h221
M  ZZC  61 h01
M  ZZC  62 h231
M  ZZC  63 h232
M  ZZC  64 h241
M  ZZC  65 h242
M  ZZC  66 h243
M  ZZM   1 7
M  ZZI   1 81
M  ZZM   2 3
M  ZZI   2 121
M  ZZM   3 10
M  ZZI   3 211
M  ZZM   4 1
M  ZZI   4 113
M  ZZM   5 1
M  ZZI   5 110
M  ZZM   6 1
M  ZZI   6 111
M  ZZM   7 1
M  ZZI   7 111
M  ZZM   8 1
M  ZZI   8 111
M  ZZM   9 3
M  ZZI   9 121
M  ZZM  10 7
M  ZZI  10 81
M  ZZM  11 10
M  ZZI  11 192
M  ZZM  12 1
M  ZZI  12 113
M  ZZM  13 3
M  ZZI  13 121
M  ZZM  14 7
M  ZZI  14 81
M  ZZM  15 10
M  ZZI  15 211
M  ZZM  16 1
M  ZZI  16 113
M  ZZM  17 1
M  ZZI  17 111
M  ZZM  18 37
M  ZZI  18 124
M  ZZM  19 37
M  ZZI  19 125
M  ZZM  20 37
M  ZZI  20 125
M  ZZM  21 37
M  ZZI  21 124
M  ZZM  22 22
M  ZZI  22 109
M  ZZM  23 22
M  ZZI  23 109
M  ZZM  24 22
M  ZZI  24 109
M  ZZM  25 37
M  ZZI  25 125
M  ZZM  26 37
M  ZZI  26 125
M  ZZM  27 1
M  ZZI  27 112
M  ZZM  28 1
M  ZZI  28 113
M  ZZM  29 6
M  ZZI  29 60
M  ZZM  30 1
M  ZZI  30 112
M  ZZM  31 1
M  ZZI  31 111
M  ZZM  32 28
M  ZZI  32 11
M  ZZM  33 5
M  ZZI  33 1
M  ZZM  34 5
M  ZZI  34 1
M  ZZM  35 5
M  ZZI  35 1
M  ZZM  36 5
M  ZZI  36 1
M  ZZM  37 5
M  ZZI  37 1
M  ZZM  38 5
M  ZZI  38 1
M  ZZM  39 5
M  ZZI  39 1
M  ZZM  40 5
M  ZZI  40 1
M  ZZM  41 5
M  ZZI  41 1
M  ZZM  42 5
M  ZZI  42 1
M  ZZM  43 5
M  ZZI  43 1
M  ZZM  44 28
M  ZZI  44 11
M  ZZM  45 5
M  ZZI  45 1
M  ZZM  46 5
M  ZZI  46 1
M  ZZM  47 5
M  ZZI  47 1
M  ZZM  48 5
M  ZZI  48 1
M  ZZM  49 5
M  ZZI  49 1
M  ZZM  50 5
M  ZZI  50 1
M  ZZM  51 5
M  ZZI  51 1
M  ZZM  52 5
M  ZZI  52 1
M  ZZM  53 5
M  ZZI  53 1
M  ZZM  54 5
M  ZZI  54 1
M  ZZM  55 5
M  ZZI  55 1
M  ZZM  56 5
M  ZZI  56 1
M  ZZM  57 5
M  ZZI  57 1
M  ZZM  58 5
M  ZZI  58 1
M  ZZM  59 5
M  ZZI  59 1
M  ZZM  60 5
M  ZZI  60 1
M  ZZM  61 21
M  ZZI  61 20
M  ZZM  62 5
M  ZZI  62 1
M  ZZM  63 5
M  ZZI  63 1
M  ZZM  64 5
M  ZZI  64 1
M  ZZM  65 5
M  ZZI  65 1
M  ZZM  66 5
M  ZZI  66 1
M  END
> <IX>
1

> <NAME>
VHL_1ERR_31.pdb

> <Score>
0.463954

> <Natom>
66

> <Nflex>
9

> <Hbond>
-5.090324

> <Hphob>
-6.39193

> <VwInt>
-26.033316

> <Dsolv>
20.426864

> <SolEl>
25.527924

> <Eintl>
10.149674

> <RecConf>
ND

> <projPath>
VHL_maps/

> <NAME_>
VHL_1ERR_31.pdb

$$$$
